#------------------------------------------------------------------------------
#$Date: 2021-07-05 19:48:10 +0300 (Mon, 05 Jul 2021) $
#$Revision: 267059 $
#$URL: file:///home/coder/svn-repositories/cod/cif/1/55/97/1559793.cif $
#------------------------------------------------------------------------------
#
# This file is available in the Crystallography Open Database (COD),
# http://www.crystallography.net/
#
# All data on this site have been placed in the public domain by the
# contributors.
#
data_1559793
loop_
_publ_author_name
'Kleemiss, Florian'
'Dolomanov, Oleg V.'
'Bodensteiner, Michael'
'Peyerimhoff, Norbert'
'Midgley, Laura'
'Bourhis, Luc J.'
'Genoni, Alessandro'
'Malaspina, Lorraine A.'
'Jayatilaka, Dylan'
'Spencer, John L.'
'White, Fraser'
'Grundk\"otter-Stock, Bernhard'
'Steinhauer, Simon'
'Lentz, Dieter'
'Puschmann, Horst'
'Grabowsky, Simon'
_publ_section_title
;
 Accurate crystal structures and chemical properties from NoSpherA2.
;
_journal_issue                   5
_journal_name_full               'Chemical science'
_journal_page_first              1675
_journal_page_last               1692
_journal_paper_doi               10.1039/d0sc05526c
_journal_volume                  12
_journal_year                    2020
_chemical_formula_moiety         'Ca1 F2'
_chemical_formula_sum            'Ca F2'
_chemical_formula_weight         78.075
_space_group_crystal_system      cubic
_space_group_IT_number           225
_space_group_name_Hall           '-F 4 2 3'
_space_group_name_H-M_alt        'F m -3 m'
_symmetry_Int_Tables_number      225
_audit_creation_date             2020-03-13
_audit_creation_method
;
Olex2 1.3-dev
(compiled 2020.03.04 svn.rc2590c38 for OlexSys, GUI svn.r6014)
;
_audit_update_record
;
2020-09-28 deposited with the CCDC.	2020-11-09 downloaded from the CCDC.
;
_cell_angle_alpha                90
_cell_angle_beta                 90
_cell_angle_gamma                90
_cell_formula_units_Z            4
_cell_length_a                   5.45095(5)
_cell_length_b                   5.45095(5)
_cell_length_c                   5.45095(5)
_cell_measurement_reflns_used    6248
_cell_measurement_temperature    100.0(10)
_cell_measurement_theta_max      65.6870
_cell_measurement_theta_min      5.0900
_cell_volume                     161.963(3)
_computing_cell_refinement       'CrysAlisPro 1.171.40.53 (Rigaku OD, 2019)'
_computing_data_collection       'CrysAlisPro 1.171.40.53 (Rigaku OD, 2019)'
_computing_data_reduction        'CrysAlisPro 1.171.40.53 (Rigaku OD, 2019)'
_computing_molecular_graphics    'Olex2 1.3-dev (Dolomanov et al., 2009)'
_computing_publication_material  'Olex2 1.3-dev (Dolomanov et al., 2009)'
_computing_structure_refinement  'olex2.refine 1.3-dev (Bourhis et al., 2015)'
_diffrn_ambient_environment      N~2~
_diffrn_ambient_temperature      99.97(10)
_diffrn_detector                 'Hybrid Pixel Array Detector'
_diffrn_detector_area_resol_mean 10.0000
_diffrn_detector_type            HyPix
_diffrn_measured_fraction_theta_full 1.0000
_diffrn_measured_fraction_theta_max 1.0000
_diffrn_measurement_details
;
List of Runs (angles in degrees, time in seconds):

  # Type    Start    End  Width  t~exp~   \w     \q     \k     \f   Frames
#--------------------------------------------------------------------------
  1  \w    -18.00  73.00   1.00    5.00    --    0.00  65.00-147.00   91
  2  \w     74.00 149.00   1.00   20.00    --   86.25  47.00 -55.00   75
  3  \w     82.00 149.00   1.00   20.00    --   86.25 110.00  24.00   67
  4  \w     74.00 149.00   1.00   20.00    --   86.25  19.00 150.00   75
  5  \w     74.00 149.00   1.00   20.00    --   86.25  19.00  30.00   75
  6  \w     72.00 149.00   1.00   20.00    --   86.25  57.00-120.00   77
  7  \w     74.00 149.00   1.00   20.00    --   86.25  37.00-150.00   75
  8  \w     72.00 149.00   1.00   20.00    --   86.25  57.00 -30.00   77
  9  \w     72.00 149.00   1.00   20.00    --   86.25  57.00  60.00   77
 10  \w     72.00 149.00   1.00   20.00    --   86.25  57.00 150.00   77
 11  \w     14.00  53.00   1.00   20.00    --   86.25 -65.00  76.00   39
 12  \w     14.00  81.00   1.00   20.00    --   86.25 -99.00   0.00   67
 13  \w     14.00  81.00   1.00   20.00    --   86.25 -77.00  12.00   67
 14  \w     14.00  41.00   1.00   20.00    --   86.25 -57.00 150.00   27
 15  \w     14.00 115.00   1.00   20.00    --   86.25 -88.00 136.03  101
 16  \w     14.00  41.00   1.00   20.00    --   86.25 -57.00 -90.00   27
 17  \w     14.00  41.00   1.00   20.00    --   86.25 -57.00-150.00   27
 18  \w     14.00  41.00   1.00   20.00    --   86.25 -57.00-180.00   27
 19  \w     14.00 114.00   1.00   20.00    --   86.25 -87.00-107.96  100
 20  \w    -12.00  76.00   1.00    5.00    --    0.00  19.00 150.00   88
 21  \w    -12.00  60.00   1.00    5.00    --    0.00  19.00  90.00   72
 22  \w    -22.00  34.00   1.00    5.00    --    0.00 -99.00  60.00   56
 23  \w    -22.00  34.00   1.00    5.00    --    0.00 -99.00 120.00   56
 24  \w    -42.00 -12.00   1.00   20.00    --  -40.25 -88.00 160.39   30
 25  \w    -41.00 -10.00   1.00   20.00    --  -40.25 -92.00  78.08   31
 26  \w    -75.00 -50.00   1.00   40.00    --  -40.25 110.00  24.00   25
 27  \w     91.00 116.00   1.00   40.00    --   86.25 110.00  24.00   25
;
_diffrn_measurement_device       'four-circle diffractometer'
_diffrn_measurement_device_type  'XtaLAB Synergy, Dualflex, HyPix'
_diffrn_measurement_method       '\w scans'
_diffrn_orient_matrix_type
'CrysAlisPro convention (1999,Acta A55,543-557)'
_diffrn_orient_matrix_UB_11      0.0926552000
_diffrn_orient_matrix_UB_12      -0.0381070000
_diffrn_orient_matrix_UB_13      0.0220841000
_diffrn_orient_matrix_UB_21      -0.0386687000
_diffrn_orient_matrix_UB_22      -0.0453312000
_diffrn_orient_matrix_UB_23      0.0834962000
_diffrn_orient_matrix_UB_31      -0.0212714000
_diffrn_orient_matrix_UB_32      -0.0837436000
_diffrn_orient_matrix_UB_33      -0.0555333000
_diffrn_radiation_monochromator  mirror
_diffrn_radiation_probe          x-ray
_diffrn_radiation_type           'Ag K\a'
_diffrn_radiation_wavelength     0.56087
_diffrn_reflns_av_R_equivalents  0.0673
_diffrn_reflns_av_unetI/netI     0.0117
_diffrn_reflns_Laue_measured_fraction_full 1.0000
_diffrn_reflns_Laue_measured_fraction_max 1.0000
_diffrn_reflns_limit_h_max       13
_diffrn_reflns_limit_h_min       -13
_diffrn_reflns_limit_k_max       13
_diffrn_reflns_limit_k_min       -13
_diffrn_reflns_limit_l_max       13
_diffrn_reflns_limit_l_min       -13
_diffrn_reflns_number            5299
_diffrn_reflns_point_group_measured_fraction_full 1.0000
_diffrn_reflns_point_group_measured_fraction_max 1.0000
_diffrn_reflns_theta_full        19.6651
_diffrn_reflns_theta_max         44.26
_diffrn_reflns_theta_min         5.11
_diffrn_source                   'micro-focus sealed X-ray tube'
_diffrn_source_type              'PhotonJet (Ag) X-ray Source'
_exptl_absorpt_coefficient_mu    1.747
_exptl_absorpt_correction_T_max  0.895
_exptl_absorpt_correction_T_min  0.776
_exptl_absorpt_correction_type   analytical
_exptl_absorpt_process_details
;
CrysAlisPro 1.171.40.53 (Rigaku Oxford Diffraction, 2019)
Analytical numeric absorption correction using a multifaceted crystal
			model based on expressions derived by R.C. Clark & J.S. Reid.
(Clark, R. C. & Reid, J. S. (1995). Acta Cryst. A51, 887-897)
Empirical absorption correction using spherical harmonics,
 implemented in SCALE3 ABSPACK scaling algorithm.
;
_exptl_crystal_density_diffrn    3.202
_exptl_crystal_description       block
_exptl_crystal_F_000             152.597
_exptl_crystal_size_max          0.304
_exptl_crystal_size_mid          0.205
_exptl_crystal_size_min          0.105
_refine_diff_density_max         0.6860
_refine_diff_density_min         -0.4146
_refine_diff_density_rms         0.0898
_refine_ls_d_res_high            0.4018
_refine_ls_d_res_low             3.1471
_refine_ls_goodness_of_fit_ref   1.0864
_refine_ls_hydrogen_treatment    undef
_refine_ls_matrix_type           full
_refine_ls_number_constraints    0
_refine_ls_number_parameters     3
_refine_ls_number_reflns         96
_refine_ls_number_restraints     0
_refine_ls_restrained_S_all      1.0864
_refine_ls_R_factor_all          0.0114
_refine_ls_R_factor_gt           0.0114
_refine_ls_shift/su_max          0.0000
_refine_ls_shift/su_mean         0.0000
_refine_ls_structure_factor_coef Fsqd
_refine_ls_weighting_details
'w=1/[\s^2^(Fo^2^)+(0.0175P)^2^+0.0607P] where P=(Fo^2^+2Fc^2^)/3'
_refine_ls_weighting_scheme      calc
_refine_ls_wR_factor_gt          0.0279
_refine_ls_wR_factor_ref         0.0279
_reflns_Friedel_coverage         0.0
_reflns_limit_h_max              7
_reflns_limit_h_min              0
_reflns_limit_k_max              13
_reflns_limit_k_min              1
_reflns_limit_l_max              9
_reflns_limit_l_min              0
_reflns_number_gt                96
_reflns_number_total             96
_reflns_threshold_expression     I>=2u(I)
_iucr_refine_instructions_details
;
TITL caf_ag3_a.res in Fm-3m
REM Old TITL CaF_Ag3 in Fm-3m
REM SHELXT solution in Fm-3m
REM R1 0.012, Rweak 0.001, Alpha 0.002, Orientation as input
REM Formula found by SHELXT: F2 Ca
CELL 0.56087 5.450952 5.450952 5.450952 90 90 90
ZERR 4 0.000052 0.000052 0.000052 0 0 0
LATT 4
SYMM -X,-Y,+Z
SYMM -X,+Y,-Z
SYMM +X,-Y,-Z
SYMM +Z,+X,+Y
SYMM +Z,-X,-Y
SYMM -Z,-X,+Y
SYMM -Z,+X,-Y
SYMM +Y,+Z,+X
SYMM -Y,+Z,-X
SYMM +Y,-Z,-X
SYMM -Y,-Z,+X
SYMM +Y,+X,-Z
SYMM -Y,-X,-Z
SYMM +Y,-X,+Z
SYMM -Y,+X,+Z
SYMM +X,+Z,-Y
SYMM -X,+Z,+Y
SYMM -X,-Z,-Y
SYMM +X,-Z,+Y
SYMM +Z,+Y,-X
SYMM +Z,-Y,+X
SYMM -Z,+Y,+X
SYMM -Z,-Y,-X
SFAC Ca F
DISP Ca 0.1378 0.1937 651.9347
DISP F 0.006 0.0061 27.6988
UNIT 4 8

L.S. 10
PLAN  10
CONF
MORE -1
fmap 2
acta 
LIST -6
WGHT 0.017492 0.060656
FVAR 0.977822
REM <olex2.extras>
REM <HklSrc "%.\\CaF_Ag3.hkl">
REM </olex2.extras>

Ca01  1     0.50000  0.50000  0.50000  10.02083  0.00334  0.00334  0.00334 =
 0.00000  0.00000  0.00000 
F002  2     0.25000  0.75000  0.75000  10.04167  0.00505  0.00505  0.00505 =
 0.00000 -0.00000 -0.00000 
HKLF 4

END
Q1 1 0.388889 0.611111 0.611111 11 0.05 0.25
Q2 1 0.5 0.722222 0.5 11 0.05 0.19
Q3 1 0 0.75 0.75 11 0.05 0.19
Q4 1 0.138889 0.861111 0.861111 11 0.05 0.08
Q5 1 0 1 1 11 0.05 -0.04

  REM The information below was added by Olex2.
  REM
  REM R1 = 0.0114 for 96 Fo > 4sig(Fo) and 0.0114 for all 96 data
  REM 3 parameters refined using 0 restraints
  REM Highest difference peak 0.6860, deepest hole -0.4146
  REM Mean Shift 0.0000, Max Shift 0.0000.

  REM +++ Tabular Listing of Refinement Information +++
  REM R1_all = 0.0114
  REM R1_gt = 0.0114
  REM wR_ref = 0.0279
  REM GOOF = 1.0864
  REM Shift_max = 0.0000
  REM Shift_mean = 0.0000
  REM Reflections_all = 96
  REM Reflections_gt = 96
  REM Parameters = 3
  REM Hole = -0.4146
  REM Peak = 0.6860
  REM Flack = n/a

  
;
_cod_data_source_file            d0sc05526c2.cif
_cod_data_source_block           CaF2
_cod_depositor_comments
;Adding full bibliography for 1559792--1559798.cif.

 Adding full bibliography for 1559792--1559798.cif.
;
_cod_database_code               1559793
_chemical_oxdiff_formula         'Ca F'
_reflns_odcompleteness_completeness 95.02
_reflns_odcompleteness_iscentric 1
_reflns_odcompleteness_theta     44.37
_olex2_refinement_description
;
;
_iucr_refine_fcf_details
;
data_CaF2_CCDC1
_computing_structure_refinement   'olex2.refine 1.3-dev (Bourhis et al., 2015)'
_shelx_refln_list_code            4
loop_
  _space_group_symop_id
  _space_group_symop_operation_xyz
    1  x,y,z
    2  x,-z,y
    3  x,z,-y
    4  z,y,-x
    5  -z,y,x
    6  -y,x,z
    7  y,-x,z
    8  z,x,y
    9  y,z,x
   10  -y,-z,x
   11  z,-x,-y
   12  -y,z,-x
   13  -z,-x,y
   14  -z,x,-y
   15  y,-z,-x
   16  x,-y,-z
   17  -x,y,-z
   18  -x,-y,z
   19  y,x,-z
   20  -y,-x,-z
   21  z,-y,x
   22  -z,-y,-x
   23  -x,z,y
   24  -x,-z,-y
   25  -x,-y,-z
   26  -x,z,-y
   27  -x,-z,y
   28  -z,-y,x
   29  z,-y,-x
   30  y,-x,-z
   31  -y,x,-z
   32  -z,-x,-y
   33  -y,-z,-x
   34  y,z,-x
   35  -z,x,y
   36  y,-z,x
   37  z,x,-y
   38  z,-x,y
   39  -y,z,x
   40  -x,y,z
   41  x,-y,z
   42  x,y,-z
   43  -y,-x,z
   44  y,x,z
   45  -z,y,-x
   46  z,y,x
   47  x,-z,-y
   48  x,z,y
   49  x,y+1/2,z+1/2
   50  x,-z+1/2,y+1/2
   51  x,z+1/2,-y+1/2
   52  z,y+1/2,-x+1/2
   53  -z,y+1/2,x+1/2
   54  -y,x+1/2,z+1/2
   55  y,-x+1/2,z+1/2
   56  z,x+1/2,y+1/2
   57  y,z+1/2,x+1/2
   58  -y,-z+1/2,x+1/2
   59  z,-x+1/2,-y+1/2
   60  -y,z+1/2,-x+1/2
   61  -z,-x+1/2,y+1/2
   62  -z,x+1/2,-y+1/2
   63  y,-z+1/2,-x+1/2
   64  x,-y+1/2,-z+1/2
   65  -x,y+1/2,-z+1/2
   66  -x,-y+1/2,z+1/2
   67  y,x+1/2,-z+1/2
   68  -y,-x+1/2,-z+1/2
   69  z,-y+1/2,x+1/2
   70  -z,-y+1/2,-x+1/2
   71  -x,z+1/2,y+1/2
   72  -x,-z+1/2,-y+1/2
   73  -x,-y+1/2,-z+1/2
   74  -x,z+1/2,-y+1/2
   75  -x,-z+1/2,y+1/2
   76  -z,-y+1/2,x+1/2
   77  z,-y+1/2,-x+1/2
   78  y,-x+1/2,-z+1/2
   79  -y,x+1/2,-z+1/2
   80  -z,-x+1/2,-y+1/2
   81  -y,-z+1/2,-x+1/2
   82  y,z+1/2,-x+1/2
   83  -z,x+1/2,y+1/2
   84  y,-z+1/2,x+1/2
   85  z,x+1/2,-y+1/2
   86  z,-x+1/2,y+1/2
   87  -y,z+1/2,x+1/2
   88  -x,y+1/2,z+1/2
   89  x,-y+1/2,z+1/2
   90  x,y+1/2,-z+1/2
   91  -y,-x+1/2,z+1/2
   92  y,x+1/2,z+1/2
   93  -z,y+1/2,-x+1/2
   94  z,y+1/2,x+1/2
   95  x,-z+1/2,-y+1/2
   96  x,z+1/2,y+1/2
   97  x+1/2,y,z+1/2
   98  x+1/2,-z,y+1/2
   99  x+1/2,z,-y+1/2
  100  z+1/2,y,-x+1/2
  101  -z+1/2,y,x+1/2
  102  -y+1/2,x,z+1/2
  103  y+1/2,-x,z+1/2
  104  z+1/2,x,y+1/2
  105  y+1/2,z,x+1/2
  106  -y+1/2,-z,x+1/2
  107  z+1/2,-x,-y+1/2
  108  -y+1/2,z,-x+1/2
  109  -z+1/2,-x,y+1/2
  110  -z+1/2,x,-y+1/2
  111  y+1/2,-z,-x+1/2
  112  x+1/2,-y,-z+1/2
  113  -x+1/2,y,-z+1/2
  114  -x+1/2,-y,z+1/2
  115  y+1/2,x,-z+1/2
  116  -y+1/2,-x,-z+1/2
  117  z+1/2,-y,x+1/2
  118  -z+1/2,-y,-x+1/2
  119  -x+1/2,z,y+1/2
  120  -x+1/2,-z,-y+1/2
  121  -x+1/2,-y,-z+1/2
  122  -x+1/2,z,-y+1/2
  123  -x+1/2,-z,y+1/2
  124  -z+1/2,-y,x+1/2
  125  z+1/2,-y,-x+1/2
  126  y+1/2,-x,-z+1/2
  127  -y+1/2,x,-z+1/2
  128  -z+1/2,-x,-y+1/2
  129  -y+1/2,-z,-x+1/2
  130  y+1/2,z,-x+1/2
  131  -z+1/2,x,y+1/2
  132  y+1/2,-z,x+1/2
  133  z+1/2,x,-y+1/2
  134  z+1/2,-x,y+1/2
  135  -y+1/2,z,x+1/2
  136  -x+1/2,y,z+1/2
  137  x+1/2,-y,z+1/2
  138  x+1/2,y,-z+1/2
  139  -y+1/2,-x,z+1/2
  140  y+1/2,x,z+1/2
  141  -z+1/2,y,-x+1/2
  142  z+1/2,y,x+1/2
  143  x+1/2,-z,-y+1/2
  144  x+1/2,z,y+1/2
  145  x+1/2,y+1/2,z
  146  x+1/2,-z+1/2,y
  147  x+1/2,z+1/2,-y
  148  z+1/2,y+1/2,-x
  149  -z+1/2,y+1/2,x
  150  -y+1/2,x+1/2,z
  151  y+1/2,-x+1/2,z
  152  z+1/2,x+1/2,y
  153  y+1/2,z+1/2,x
  154  -y+1/2,-z+1/2,x
  155  z+1/2,-x+1/2,-y
  156  -y+1/2,z+1/2,-x
  157  -z+1/2,-x+1/2,y
  158  -z+1/2,x+1/2,-y
  159  y+1/2,-z+1/2,-x
  160  x+1/2,-y+1/2,-z
  161  -x+1/2,y+1/2,-z
  162  -x+1/2,-y+1/2,z
  163  y+1/2,x+1/2,-z
  164  -y+1/2,-x+1/2,-z
  165  z+1/2,-y+1/2,x
  166  -z+1/2,-y+1/2,-x
  167  -x+1/2,z+1/2,y
  168  -x+1/2,-z+1/2,-y
  169  -x+1/2,-y+1/2,-z
  170  -x+1/2,z+1/2,-y
  171  -x+1/2,-z+1/2,y
  172  -z+1/2,-y+1/2,x
  173  z+1/2,-y+1/2,-x
  174  y+1/2,-x+1/2,-z
  175  -y+1/2,x+1/2,-z
  176  -z+1/2,-x+1/2,-y
  177  -y+1/2,-z+1/2,-x
  178  y+1/2,z+1/2,-x
  179  -z+1/2,x+1/2,y
  180  y+1/2,-z+1/2,x
  181  z+1/2,x+1/2,-y
  182  z+1/2,-x+1/2,y
  183  -y+1/2,z+1/2,x
  184  -x+1/2,y+1/2,z
  185  x+1/2,-y+1/2,z
  186  x+1/2,y+1/2,-z
  187  -y+1/2,-x+1/2,z
  188  y+1/2,x+1/2,z
  189  -z+1/2,y+1/2,-x
  190  z+1/2,y+1/2,x
  191  x+1/2,-z+1/2,-y
  192  x+1/2,z+1/2,y

_space_group_crystal_system       cubic
_space_group_IT_number            225
_space_group_name_H-M_alt         'F m -3 m'
_space_group_name_Hall            '-F 4 2 3'
_symmetry_space_group_name_H-M    'F m -3 m'
_symmetry_space_group_name_Hall   '-F 4 2 3'
_symmetry_Int_Tables_number       225
_cell_length_a                    5.45095(5)
_cell_length_b                    5.45095(5)
_cell_length_c                    5.45095(5)
_cell_angle_alpha                 90
_cell_angle_beta                  90
_cell_angle_gamma                 90
_cell_volume                      161.963(3)
loop_
  _refln_index_h
  _refln_index_k
  _refln_index_l
  _refln_F_squared_calc
  _refln_F_squared_meas
  _refln_F_squared_sigma
  _refln_F_squared_weight
  _refln_observed_status
0 2 0 5.265 5.566 0.316 2769.580 o
0 2 2 9186.320 9364.950 128.109 0.028 o
0 4 0 5092.310 5134.860 67.439 0.094 o
0 4 2 88.484 96.162 0.999 132.758 o
0 4 4 2528.640 2595.450 32.130 0.378 o
0 6 0 120.209 116.319 2.748 62.988 o
0 6 2 2012.960 1956.620 28.032 0.566 o
0 6 4 128.956 128.767 1.375 81.281 o
0 6 6 1112.060 1067.520 9.658 2.277 o
0 8 0 1245.200 1264.500 30.461 0.811 o
0 8 2 119.228 119.667 1.563 85.611 o
0 8 4 977.298 975.355 5.251 3.175 o
0 8 6 85.921 87.797 0.726 149.026 o
0 8 8 546.323 522.519 6.766 7.195 o
0 10 0 87.724 90.633 1.292 127.144 o
0 10 2 713.820 732.933 4.080 5.490 o
0 10 4 73.611 73.728 0.763 179.231 o
0 10 6 486.037 483.374 4.195 10.101 o
0 10 8 34.719 35.821 0.777 386.858 o
0 12 0 440.373 442.919 9.386 6.893 o
0 12 2 48.592 48.944 0.659 292.202 o
0 12 4 360.031 377.398 3.783 15.526 o
0 12 6 30.025 22.398 1.478 294.579 o
1 1 1 3919.510 4118.570 67.241 0.125 o
1 3 1 2099.420 2189.730 17.306 0.662 o
1 3 3 1405.750 1443.530 18.617 1.147 o
1 5 1 1061.770 1031.380 11.976 2.204 o
1 5 3 867.927 879.289 7.456 3.527 o
1 5 5 651.871 641.182 7.205 5.470 o
1 7 1 649.537 655.079 6.671 5.623 o
1 7 3 579.321 567.025 3.993 7.907 o
1 7 5 467.548 458.898 2.424 12.009 o
1 7 7 342.872 337.657 1.796 20.201 o
1 9 1 419.461 426.004 4.403 12.102 o
1 9 3 378.638 383.344 1.736 17.103 o
1 9 5 305.014 310.543 1.245 24.553 o
1 9 7 230.105 226.617 1.647 36.841 o
1 9 9 157.651 154.710 2.348 53.379 o
1 11 1 251.852 261.177 1.952 30.701 o
1 11 3 228.723 235.718 1.473 36.974 o
1 11 5 189.844 193.206 1.409 48.628 o
1 11 7 143.917 140.683 1.699 67.576 o
1 13 1 139.773 140.324 3.088 50.063 o
1 13 3 129.471 134.555 1.297 80.691 o
2 2 2 55.515 60.351 0.909 227.312 o
2 4 2 3402.180 3331.140 45.820 0.207 o
2 4 4 120.579 117.858 1.969 77.491 o
2 6 2 126.827 124.999 1.703 77.930 o
2 6 4 1434.750 1401.760 8.131 1.556 o
2 6 6 113.454 111.725 1.064 101.239 o
2 8 2 1104.750 1099.650 10.906 2.154 o
2 8 4 105.943 105.356 0.585 118.142 o
2 8 6 712.317 702.383 3.176 5.812 o
2 8 8 58.395 59.198 0.742 232.958 o
2 10 2 80.803 82.620 0.772 159.004 o
2 10 4 582.290 588.542 2.479 8.231 o
2 10 6 51.867 52.795 0.466 285.301 o
2 10 8 333.460 323.747 3.095 19.095 o
2 12 2 399.255 413.668 3.537 13.825 o
2 12 4 37.612 39.556 0.431 407.005 o
2 12 6 276.547 279.764 3.264 23.543 o
3 3 3 1058.750 1015.450 22.464 1.334 o
3 5 3 744.051 730.519 8.238 4.293 o
3 5 5 577.306 565.610 4.694 7.638 o
3 7 3 516.978 511.331 4.343 9.158 o
3 7 5 420.466 418.852 1.933 14.459 o
3 7 7 310.225 311.668 1.549 23.677 o
3 9 3 346.049 343.284 2.001 19.589 o
3 9 5 281.360 282.407 1.317 27.896 o
3 9 7 206.887 207.561 1.355 43.689 o
3 9 9 142.184 137.346 2.646 55.733 o
3 11 3 210.698 216.105 2.004 39.140 o
3 11 5 169.534 176.005 1.303 56.904 o
3 11 7 128.618 122.426 1.977 72.947 o
4 4 4 1675.060 1565.030 20.876 0.886 o
4 6 4 119.912 119.453 1.183 92.131 o
4 6 6 879.421 862.593 5.367 3.812 o
4 8 4 790.170 794.623 5.222 4.503 o
4 8 6 72.832 73.930 0.510 189.670 o
4 8 8 436.942 442.412 4.269 11.591 o
4 10 4 59.850 60.658 0.664 231.506 o
4 10 6 398.537 405.161 3.156 14.416 o
4 10 8 30.993 28.481 0.417 527.080 o
4 12 4 306.530 307.881 3.167 20.917 o
5 5 5 466.121 463.500 4.317 10.633 o
5 7 5 341.598 342.537 2.065 19.786 o
5 7 7 254.497 250.420 2.357 29.677 o
5 9 5 230.191 235.921 2.431 32.968 o
5 9 7 172.226 174.245 1.401 55.678 o
5 11 5 142.330 144.691 1.573 69.018 o
6 6 6 80.307 79.164 1.300 141.576 o
6 8 6 481.289 480.862 3.662 10.601 o
6 8 8 38.875 37.842 0.836 344.507 o
6 10 6 34.634 34.227 0.563 433.418 o
7 7 7 190.116 187.837 4.034 31.048 o
7 9 7 129.374 118.415 2.999 56.042 o
;
_olex2_submission_special_instructions 'No special instructions were received'
_oxdiff_exptl_absorpt_empirical_details
;
Empirical correction (ABSPACK) includes:
- Absorption correction using spherical harmonics
- Frame scaling
;
_oxdiff_exptl_absorpt_empirical_full_max 1.970
_oxdiff_exptl_absorpt_empirical_full_min 0.709
loop_
_space_group_symop_id
_space_group_symop_operation_xyz
1 x,y,z
2 x,-z,y
3 x,z,-y
4 z,y,-x
5 -z,y,x
6 -y,x,z
7 y,-x,z
8 z,x,y
9 y,z,x
10 -y,-z,x
11 z,-x,-y
12 -y,z,-x
13 -z,-x,y
14 -z,x,-y
15 y,-z,-x
16 x,-y,-z
17 -x,y,-z
18 -x,-y,z
19 y,x,-z
20 -y,-x,-z
21 z,-y,x
22 -z,-y,-x
23 -x,z,y
24 -x,-z,-y
25 -x,-y,-z
26 -x,z,-y
27 -x,-z,y
28 -z,-y,x
29 z,-y,-x
30 y,-x,-z
31 -y,x,-z
32 -z,-x,-y
33 -y,-z,-x
34 y,z,-x
35 -z,x,y
36 y,-z,x
37 z,x,-y
38 z,-x,y
39 -y,z,x
40 -x,y,z
41 x,-y,z
42 x,y,-z
43 -y,-x,z
44 y,x,z
45 -z,y,-x
46 z,y,x
47 x,-z,-y
48 x,z,y
49 x,y+1/2,z+1/2
50 x,-z+1/2,y+1/2
51 x,z+1/2,-y+1/2
52 z,y+1/2,-x+1/2
53 -z,y+1/2,x+1/2
54 -y,x+1/2,z+1/2
55 y,-x+1/2,z+1/2
56 z,x+1/2,y+1/2
57 y,z+1/2,x+1/2
58 -y,-z+1/2,x+1/2
59 z,-x+1/2,-y+1/2
60 -y,z+1/2,-x+1/2
61 -z,-x+1/2,y+1/2
62 -z,x+1/2,-y+1/2
63 y,-z+1/2,-x+1/2
64 x,-y+1/2,-z+1/2
65 -x,y+1/2,-z+1/2
66 -x,-y+1/2,z+1/2
67 y,x+1/2,-z+1/2
68 -y,-x+1/2,-z+1/2
69 z,-y+1/2,x+1/2
70 -z,-y+1/2,-x+1/2
71 -x,z+1/2,y+1/2
72 -x,-z+1/2,-y+1/2
73 -x,-y+1/2,-z+1/2
74 -x,z+1/2,-y+1/2
75 -x,-z+1/2,y+1/2
76 -z,-y+1/2,x+1/2
77 z,-y+1/2,-x+1/2
78 y,-x+1/2,-z+1/2
79 -y,x+1/2,-z+1/2
80 -z,-x+1/2,-y+1/2
81 -y,-z+1/2,-x+1/2
82 y,z+1/2,-x+1/2
83 -z,x+1/2,y+1/2
84 y,-z+1/2,x+1/2
85 z,x+1/2,-y+1/2
86 z,-x+1/2,y+1/2
87 -y,z+1/2,x+1/2
88 -x,y+1/2,z+1/2
89 x,-y+1/2,z+1/2
90 x,y+1/2,-z+1/2
91 -y,-x+1/2,z+1/2
92 y,x+1/2,z+1/2
93 -z,y+1/2,-x+1/2
94 z,y+1/2,x+1/2
95 x,-z+1/2,-y+1/2
96 x,z+1/2,y+1/2
97 x+1/2,y,z+1/2
98 x+1/2,-z,y+1/2
99 x+1/2,z,-y+1/2
100 z+1/2,y,-x+1/2
101 -z+1/2,y,x+1/2
102 -y+1/2,x,z+1/2
103 y+1/2,-x,z+1/2
104 z+1/2,x,y+1/2
105 y+1/2,z,x+1/2
106 -y+1/2,-z,x+1/2
107 z+1/2,-x,-y+1/2
108 -y+1/2,z,-x+1/2
109 -z+1/2,-x,y+1/2
110 -z+1/2,x,-y+1/2
111 y+1/2,-z,-x+1/2
112 x+1/2,-y,-z+1/2
113 -x+1/2,y,-z+1/2
114 -x+1/2,-y,z+1/2
115 y+1/2,x,-z+1/2
116 -y+1/2,-x,-z+1/2
117 z+1/2,-y,x+1/2
118 -z+1/2,-y,-x+1/2
119 -x+1/2,z,y+1/2
120 -x+1/2,-z,-y+1/2
121 -x+1/2,-y,-z+1/2
122 -x+1/2,z,-y+1/2
123 -x+1/2,-z,y+1/2
124 -z+1/2,-y,x+1/2
125 z+1/2,-y,-x+1/2
126 y+1/2,-x,-z+1/2
127 -y+1/2,x,-z+1/2
128 -z+1/2,-x,-y+1/2
129 -y+1/2,-z,-x+1/2
130 y+1/2,z,-x+1/2
131 -z+1/2,x,y+1/2
132 y+1/2,-z,x+1/2
133 z+1/2,x,-y+1/2
134 z+1/2,-x,y+1/2
135 -y+1/2,z,x+1/2
136 -x+1/2,y,z+1/2
137 x+1/2,-y,z+1/2
138 x+1/2,y,-z+1/2
139 -y+1/2,-x,z+1/2
140 y+1/2,x,z+1/2
141 -z+1/2,y,-x+1/2
142 z+1/2,y,x+1/2
143 x+1/2,-z,-y+1/2
144 x+1/2,z,y+1/2
145 x+1/2,y+1/2,z
146 x+1/2,-z+1/2,y
147 x+1/2,z+1/2,-y
148 z+1/2,y+1/2,-x
149 -z+1/2,y+1/2,x
150 -y+1/2,x+1/2,z
151 y+1/2,-x+1/2,z
152 z+1/2,x+1/2,y
153 y+1/2,z+1/2,x
154 -y+1/2,-z+1/2,x
155 z+1/2,-x+1/2,-y
156 -y+1/2,z+1/2,-x
157 -z+1/2,-x+1/2,y
158 -z+1/2,x+1/2,-y
159 y+1/2,-z+1/2,-x
160 x+1/2,-y+1/2,-z
161 -x+1/2,y+1/2,-z
162 -x+1/2,-y+1/2,z
163 y+1/2,x+1/2,-z
164 -y+1/2,-x+1/2,-z
165 z+1/2,-y+1/2,x
166 -z+1/2,-y+1/2,-x
167 -x+1/2,z+1/2,y
168 -x+1/2,-z+1/2,-y
169 -x+1/2,-y+1/2,-z
170 -x+1/2,z+1/2,-y
171 -x+1/2,-z+1/2,y
172 -z+1/2,-y+1/2,x
173 z+1/2,-y+1/2,-x
174 y+1/2,-x+1/2,-z
175 -y+1/2,x+1/2,-z
176 -z+1/2,-x+1/2,-y
177 -y+1/2,-z+1/2,-x
178 y+1/2,z+1/2,-x
179 -z+1/2,x+1/2,y
180 y+1/2,-z+1/2,x
181 z+1/2,x+1/2,-y
182 z+1/2,-x+1/2,y
183 -y+1/2,z+1/2,x
184 -x+1/2,y+1/2,z
185 x+1/2,-y+1/2,z
186 x+1/2,y+1/2,-z
187 -y+1/2,-x+1/2,z
188 y+1/2,x+1/2,z
189 -z+1/2,y+1/2,-x
190 z+1/2,y+1/2,x
191 x+1/2,-z+1/2,-y
192 x+1/2,z+1/2,y
loop_
_atom_site_label
_atom_site_type_symbol
_atom_site_fract_x
_atom_site_fract_y
_atom_site_fract_z
_atom_site_U_iso_or_equiv
_atom_site_adp_type
_atom_site_occupancy
_atom_site_site_symmetry_order
_atom_site_refinement_flags_posn
_atom_site_refinement_flags_adp
_atom_site_refinement_flags_occupancy
Ca01 Ca 0.5 0.5 0.5 0.00334(4) Uani 0.999840 48 S T P
F002 F 0.25 0.75 0.75 0.00505(6) Uani 1.000080 24 S T P
loop_
_atom_site_aniso_label
_atom_site_aniso_U_11
_atom_site_aniso_U_22
_atom_site_aniso_U_33
_atom_site_aniso_U_12
_atom_site_aniso_U_13
_atom_site_aniso_U_23
Ca01 0.00334(4) 0.00334(4) 0.00334(4) -0.000000 -0.000000 0.000000
F002 0.00505(6) 0.00505(6) 0.00505(6) -0.000000 -0.000000 0.000000
loop_
_atom_type_symbol
_atom_type_scat_dispersion_real
_atom_type_scat_dispersion_imag
_atom_type_scat_dispersion_source
Ca 0.13779 0.19369 Sasaki
F 0.00604 0.00613 Sasaki
loop_
_diffrn_refln_index_h
_diffrn_refln_index_k
_diffrn_refln_index_l
_diffrn_refln_intensity_net
_diffrn_refln_intensity_u
_diffrn_refln_scale_group_code
1 1 -1 131655 752.309 22
-1 -1 1 130983 431.837 26
1 -1 -1 143571 1048.63 1
1 -1 1 135525 1088.91 20
-1 1 -1 127516 768.201 22
1 1 1 130537 974.744 1
1 -1 -1 143833 1058.53 21
0 0 -2 152.191 26.9979 23
0 0 2 198.079 29.5982 23
0 0 -2 213.969 39.3622 1
0 2 0 167.911 37.5769 1
2 0 0 149.465 30.0849 20
2 0 0 203.993 37.0365 21
-2 0 0 197.235 42.0694 22
2 0 0 154.438 36.199 23
0 2 0 182.594 31.1441 20
-2 2 0 298353 1794.77 22
2 2 0 300498 1902.63 22
2 0 -2 320514 2284.26 21
0 -2 -2 291860 1739.17 21
2 0 2 260222 1898.13 20
2 2 0 275170 1556.2 1
-2 0 2 320778 1647.06 1
2 0 -2 305286 1610.65 1
0 2 2 310922 2081.54 1
2 -2 0 282089 1970.54 20
0 2 2 337773 1900.59 21
2 0 2 310272 1116.86 24
-2 0 -2 297957 1928.29 20
-2 0 -2 284992 1891.04 23
0 2 -2 302210 2107.35 20
2 -2 2 1984.21 183.451 20
-2 -2 2 1902.74 51.7518 26
2 -2 2 1883.61 63.5295 25
-2 -2 -2 1579.52 102.963 20
-2 -2 2 1846.91 113.551 22
-2 -2 -2 1926.82 52.8002 26
2 2 -2 1987.52 39.5822 25
2 -2 -2 2026.58 174.407 1
2 -2 2 1861.38 115.971 22
2 2 -2 1761.16 153.741 20
-2 2 2 2255.52 178.729 21
2 2 2 1860.02 162.431 1
1 -3 1 78764.9 942.837 1
-1 1 3 76043.6 961.094 1
1 -3 -1 76187.7 1021.4 21
-1 -3 1 50706.5 824.716 20
3 -1 -1 76876.6 1056.41 21
-1 -1 3 72506.8 699.651 1
-3 -1 -1 58852.9 565.508 21
1 3 -1 71372.9 665.521 22
1 -3 -1 71628.4 889.601 20
-3 1 -1 77891.3 1031.45 21
3 1 -1 64680.6 403.972 25
-1 1 3 71243 414.169 24
-3 1 1 74261.6 974.253 22
3 -1 -1 67031 457.081 25
-1 3 1 74846.9 1065.38 1
-1 -3 -1 77898.3 631.251 20
3 1 1 69485 712.864 20
-1 3 1 73494.5 978.445 21
-1 -3 -1 67796.5 915.447 1
3 1 -1 74373.1 910.19 21
1 1 -3 68815.3 1089.17 20
-1 1 -3 69640.9 820.559 23
-1 -1 -3 65787 946.181 20
3 1 1 71268.8 933.046 23
1 3 1 71842 947.368 1
3 1 -1 71085.8 909.826 22
1 3 1 75474.6 749.235 21
-3 1 -1 67430.1 894.217 22
1 1 3 74367.6 899.402 23
3 -1 1 77633.6 1029.25 20
-3 1 1 63150.3 737.976 23
1 -1 -3 72030.7 948.973 1
-1 3 -1 73525.6 623.142 22
-1 -3 1 68967.1 707.845 1
1 3 -1 68363.6 812.904 20
3 1 -1 68926.1 749.028 23
1 1 -3 66318.8 529.739 23
-1 3 -1 73012 1003.7 20
3 -1 -1 72923.1 930.514 1
1 -1 3 67440.4 1085.37 20
-1 3 -3 47072.8 986.347 20
-3 1 3 39945.2 433.991 23
3 3 1 43323.5 770.627 1
-3 1 3 55761.8 826.822 1
3 1 3 43458.1 882.241 1
3 -1 -3 51550.5 1001.89 21
-1 -3 -3 47907.5 688.684 21
3 1 3 39981.7 769.965 20
-3 -1 3 53122.5 827.67 22
3 3 -1 46543.7 755.894 22
-3 3 1 50226.7 856.526 22
3 3 -1 47934.6 536.282 1
-3 1 -3 46281.9 856.011 23
3 1 -3 57189.8 1069.8 21
3 3 -1 35852.4 592.482 20
3 -3 -1 51426.1 959.925 1
3 3 1 52182.4 940.223 22
-3 -1 -3 42907 862.054 23
1 3 -3 45387.9 908.479 20
1 -3 -3 47750.1 958.089 1
-3 -3 1 46292.3 335.436 26
3 -3 -1 45364 967.062 21
1 -3 -3 46357 872.743 21
-1 3 3 52252.7 944.866 21
3 1 3 49118.2 457.595 24
3 1 -3 37272.2 507.643 1
3 -3 1 48083.1 971.637 20
1 3 3 46907.8 921.335 1
3 -1 3 45719.7 953.357 20
3 -1 -3 46162.4 808.055 1
-3 3 -1 43697.8 715.463 22
-3 -1 -3 46409.9 817.712 20
3 3 -3 29821.1 797.247 20
-3 3 3 38310.9 926.06 21
3 -3 3 33910.1 352.001 25
-3 3 3 37185.8 853.511 1
3 -3 3 36077.5 610.835 22
3 -3 -3 34592.6 847.744 1
-3 3 3 30800.6 225.271 24
3 3 3 35419.1 859.009 1
-3 -3 3 32755.7 576.06 22
3 -3 3 36406.7 980.413 20
-3 -3 -3 30640.1 516.046 20
-3 3 -3 32308.9 800.72 23
4 0 0 156207 1429.57 23
0 -4 0 175400 1591.34 20
0 0 4 174137 1194.15 23
0 4 0 172032 1629.01 21
0 0 -4 167442 1257.11 23
-4 0 0 151917 1484.53 23
-4 0 0 154648 1419.56 21
0 4 0 153309 1544.71 1
4 0 0 165301 1534.18 21
0 -4 0 172863 1621.45 1
-4 0 0 159329 1579.46 22
0 0 4 170222 1547.64 1
4 0 0 157172 835.238 25
4 0 0 174846 1475.41 20
0 -4 2 2841.64 234.582 20
0 -4 2 3197.45 198.605 1
4 -2 0 3177.36 231.588 20
0 -2 -4 3354.23 238.141 1
-4 2 0 2794.1 227.351 21
2 4 0 3118.19 191.039 1
4 0 2 2823.9 206.857 20
2 0 -4 3859.2 284.932 21
0 2 4 3312.29 204.625 23
4 0 -2 3336.13 103.486 25
-4 2 0 3330.07 223.416 22
2 -4 0 3405.77 246.365 20
4 0 -2 3079.9 187.629 1
0 4 2 3542.46 251.451 1
-2 0 4 3225.69 197.607 1
-4 0 -2 3009.24 192.13 21
0 -2 4 3132.84 187.884 1
2 0 4 3060.16 113.253 24
4 2 0 3256.5 166.41 21
-4 2 0 2657.32 199.995 23
-2 4 0 3377.58 259.105 21
0 4 -2 3033.65 221.213 20
4 0 2 3104.96 222.394 23
-2 0 -4 2898.72 208.535 23
4 0 2 2920.27 97.0341 24
4 2 0 3332.92 140.559 20
-4 0 2 2726.97 146.968 23
4 2 0 3119.84 228.178 22
2 0 -4 3128.36 191.16 1
4 0 -2 3460.69 248.433 21
0 2 -4 2945.94 174.535 23
0 2 -4 3158.85 259.823 20
4 -2 0 2829.3 242.26 21
4 2 0 3003.92 214.603 23
-2 -4 0 2798.08 178.678 1
4 2 0 2507.3 172.68 1
-4 0 -2 2978.96 207.256 20
0 4 2 3002.51 196.082 21
0 -2 -4 3254.83 217.253 21
0 -4 -2 2843.36 213.493 21
4 2 2 120442 1556.17 22
2 -2 4 124411 1143.26 22
-2 -4 -2 107084 727.861 20
-2 -4 2 67931.5 663.166 1
4 2 -2 124037 1513.26 21
4 -2 -2 118021 1451.74 1
2 2 4 113231 1474.67 23
4 -2 -2 115755 1591.08 21
-2 2 4 129957 1501.52 1
-4 2 -2 105523 1467.38 21
4 2 2 94361.2 1365.7 1
-2 -2 4 123007 1116.2 22
4 -2 2 104389 703.627 25
2 2 -4 108883 1589.04 20
2 4 -2 98184.6 1168.62 20
-2 -2 4 126089 824.816 1
2 -4 -2 117524 1590.75 1
2 -4 -2 108617 1487.74 21
4 -2 2 109674 1532.87 20
-4 2 -2 102706 1436.46 20
-4 2 -2 107495 1304.44 22
-4 2 -2 102695 1392.47 23
-4 2 2 88463.1 1018.66 23
-2 4 -2 111092 1549.16 20
-2 2 -4 112624 1362.84 23
-4 2 2 124212 1509.86 22
2 -2 -4 120574 1471.07 1
2 -2 -4 128567 1576.21 21
2 4 2 115498 1469.56 1
4 -2 2 118493 1337.5 22
-2 -2 -4 113493 1126.85 21
4 2 -2 112853 1306.89 22
4 2 -2 111223 584.524 25
-2 -4 -2 107522 1372.06 1
2 4 -2 95949.8 889.667 22
4 2 2 67678.4 819.51 20
2 2 4 115108 1555.37 1
-2 4 -2 89732.7 894.723 22
2 4 2 90831.9 817.091 21
4 2 -2 101015 731.574 1
-2 2 4 104227 573.006 24
-2 4 2 111445 1428.76 21
-4 -2 2 105252 1232.83 22
2 -2 4 112189 1720.93 20
4 2 -2 109932 1119.6 23
4 2 2 117126 1521.07 23
-2 4 2 118332 1520.24 1
4 4 0 90489.9 1290.75 22
4 0 -4 74701.7 974.979 1
4 0 4 94156.2 1379.22 22
4 0 4 82929.8 662.102 24
-4 0 -4 77058.1 1296.11 23
0 -4 4 82316.2 1515.03 20
-4 0 -4 86091.8 1332.03 20
4 -4 0 88281.3 1407.64 20
-4 0 4 91840.7 1323.27 22
4 4 0 84606.9 1052.28 1
0 -4 -4 84879.4 1414.13 1
0 4 -4 82093 1402.09 20
0 -4 -4 80934.3 1132.27 21
-4 -4 0 83845.6 544.434 26
0 4 4 86677.8 1447.6 1
4 -4 0 82355.1 1414.03 1
4 0 -4 97619.5 1542.26 21
4 0 4 74455.6 1311.85 20
-4 4 0 83542.2 1141.65 22
4 4 0 73881.1 880.271 21
-4 4 -2 3136.52 273.743 23
4 4 -2 4192.25 243.809 22
2 4 4 4019.74 321.389 23
-4 -2 4 3974.98 246.243 22
4 -2 4 3598.53 316.299 20
-4 -2 4 3925.41 93.5099 26
-4 4 -2 4047.03 234.636 22
-4 -2 -4 3739.62 153.204 21
2 -4 -4 3992.17 320.384 1
4 4 2 4441.06 312.052 22
-2 -4 -4 2889.68 224.818 20
4 2 4 3726.87 306.12 1
4 2 -4 2149.43 81.2557 23
-2 -4 -4 3602.99 185.221 21
-4 4 -2 3588.55 287.98 20
4 -2 -4 4326.33 337.077 21
4 -4 2 3916.32 330.422 20
-4 4 2 3717.14 301.977 21
-4 4 2 4538.26 297.598 22
-4 2 -4 3962.47 290.597 23
2 -4 -4 3947.7 300.141 21
-4 -2 -4 4144.45 95.1139 26
-4 2 -4 4362.33 326.043 20
4 2 -4 4711.47 348.651 21
-2 4 4 4193.79 311.414 21
-2 4 -4 4166.51 334.459 20
2 4 4 4395.25 327.213 1
4 -2 4 4172.39 257.045 22
2 4 -4 4192.13 312.898 20
4 4 2 3870.56 317.807 23
4 2 4 4451.33 165.853 24
4 4 -2 2936.32 195.48 20
-4 2 4 3017.84 146.887 23
4 4 2 3752.98 276.945 1
4 -2 4 4161.2 139.196 25
4 -2 -4 3697.67 272.365 1
4 -4 -2 3710.03 305.273 1
4 4 4 54288.5 1201.16 1
-4 4 -4 51209.2 1146.34 23
-4 4 -4 52628 524.378 6
-4 4 4 53056.2 1246.63 21
4 -4 -4 52477.9 568.916 5
4 4 -4 49806.7 1142.14 20
-4 -4 4 43020 724.707 22
4 -4 -4 45620.8 1115.14 1
4 -4 4 49661 1291.25 20
4 -4 4 51764.6 509.351 25
4 -4 -4 46812.4 1185.16 21
4 -4 4 48285.2 780.496 22
-4 -4 4 50557.7 505.911 19
-4 -4 4 50482.9 556.352 16
-4 -4 -4 50153.5 567.299 15
-1 -5 1 32861.9 673.551 1
1 5 1 38159.6 823.723 1
1 -1 -5 37815.4 804.34 1
5 1 1 37851.3 875.37 22
1 -5 -1 36469.3 783.215 20
-5 -1 1 32312.8 766.538 22
-1 1 5 35288.1 511.774 23
1 5 -1 31745.1 623.029 20
-5 -1 -1 31389.9 763.057 23
5 -1 -1 33461.6 408.079 25
5 1 -1 34758.4 775.333 21
1 5 1 32797.4 656.797 21
-5 1 1 32942.7 668.638 23
5 1 -1 37535.6 701.936 23
1 -5 -1 34974 874.345 1
5 -1 1 23025.5 234.41 24
-1 5 -1 32298.4 727.297 20
-1 1 -5 35806 698.402 23
-5 1 1 31949.2 787.017 21
-5 -1 -1 30970.3 579.045 21
-1 -1 5 37996.2 695.039 1
-1 5 1 31633.7 765.291 21
-1 -5 1 27989.4 669.105 20
-1 1 5 35571 804.408 1
5 -1 -1 33253.7 850.841 21
-1 -5 -1 31740.5 760.449 1
1 -5 1 35393.2 864.986 20
5 1 -1 37279.3 836.73 22
1 -1 -5 41524.7 954.548 21
-1 -5 -1 33813.9 626.211 20
1 1 -5 35932.4 486.57 23
-5 1 -1 30099.2 729.619 21
1 -5 1 35929.3 832.754 1
1 1 5 36228.8 855.318 1
1 -1 5 34683.8 783.159 1
5 1 1 37238.2 800.972 23
5 -1 -1 38051.5 812.241 20
5 -1 1 35871.2 808.509 20
-5 1 -1 33186.1 768.375 23
-5 1 1 35651.9 812.035 22
-5 1 -1 33943 788.055 22
1 1 -5 35934.9 965.809 20
-1 -1 -5 35195.5 890.315 20
5 1 -1 33004.5 377.36 25
5 1 1 31996.1 620.958 20
5 -1 1 33530.8 409.895 25
-1 5 1 39408.3 834.708 1
-5 1 3 26451.8 479.006 23
-3 -1 5 30926.8 715.138 22
-1 3 5 31276.4 373.047 24
5 3 -1 28110.8 712.727 23
1 3 -5 20688.1 487.309 23
-1 -3 -5 31768.6 849.516 1
-5 3 1 23009.1 638.489 23
1 5 3 28043 619.2 21
-1 3 -5 27462.2 860.681 20
5 -3 -1 27935.8 808.872 1
-5 1 -3 28044.9 782.888 23
-1 -3 5 25015.3 517 1
5 3 1 29534.2 807.155 23
1 5 -3 28526.2 749.639 20
5 -1 -3 25784.7 661.285 1
1 -3 5 32016.7 449.547 22
-3 5 1 25005.7 773.974 21
-3 -1 -5 27572.6 201.986 26
1 3 5 31589.8 747.679 23
-1 5 3 29610.5 858.571 1
5 -3 1 27427.3 815.98 20
-3 -1 -5 29931.3 815.266 20
5 -1 3 31453.7 783.831 22
5 3 1 31540.4 845.534 22
-5 3 -1 23638.5 765.253 21
3 5 -1 30821.4 638.289 22
-1 -3 -5 30547.1 668.612 21
-3 -5 -1 26012.6 652.48 1
-5 -3 1 27897.8 303.828 26
5 1 3 29912.3 390.883 24
1 -3 5 29783.1 227.131 25
3 -5 -1 27583.5 760.273 20
1 -5 -3 24107.3 725.741 21
-1 3 -5 27161.5 671.661 23
-1 -5 3 23999.8 502.865 1
1 -3 -5 29271.6 769.184 21
3 5 -1 31204.7 542.964 1
5 3 -1 29671.6 745.62 22
3 -1 5 27630.8 870.379 20
5 -1 -3 31173.3 882.946 21
5 -3 -1 29464.3 808.473 20
-3 5 -1 27592.2 565.157 22
-1 5 -3 28300.2 802.077 20
-3 -1 5 26676.1 205.188 26
5 1 3 20274.8 567.192 20
-1 -3 -5 26071 782.773 20
5 3 -1 29481.1 636.376 21
-5 1 3 27327.4 825.707 21
-1 3 5 30498.9 830.832 1
1 3 5 31485.3 420.666 24
-3 1 -5 29742.8 846.943 20
5 1 3 30484.8 796.813 23
1 3 -5 27398.5 882.839 20
-1 5 3 25918.2 700 21
3 5 1 30695.9 729.17 1
3 1 5 32065.7 425.719 24
-5 1 -3 22992.6 684.15 21
5 -1 3 26747.5 801.473 20
1 -5 3 26456.7 854.204 20
1 5 3 30565.6 841.663 1
5 1 -3 31568.2 846.924 21
-3 1 5 30796.7 732.497 1
5 3 -1 22904.1 491.011 1
3 5 1 23518.1 387.444 21
3 -5 1 28167.1 849.738 20
-1 -5 3 25032.2 769.743 20
1 -5 3 27611.2 676.326 1
-3 -1 5 35705.4 582.166 1
-5 3 1 28698.8 743.746 22
3 1 -5 32889.1 980.369 21
-3 1 -5 28785.3 755.347 23
-5 -1 3 29551.7 738.711 22
3 -1 5 32914.5 751.659 22
-1 -3 5 32329.5 450.302 22
5 -3 -1 24667.9 812.025 21
-5 -1 -3 22773.4 467.353 21
-5 3 -1 25440.5 733.633 23
1 -3 -5 31121.8 845.549 1
5 3 1 26285.4 660.943 1
5 1 -3 23046 465.378 1
-5 1 -3 26787.2 725.545 20
3 5 -1 29641.5 457.615 20
3 1 5 31595.1 762.802 23
-3 5 -1 24108.6 806.302 21
3 -5 1 28068 814.453 1
-1 -5 -3 29086.4 822.687 1
-5 3 -1 27987.1 696.575 22
-5 -1 -3 25447.8 763.424 23
3 -1 -5 29249.7 699.878 1
-3 3 -5 23633.4 326.811 6
3 3 -5 24655.4 871.872 20
-5 3 -3 20962.2 725.471 20
-3 -3 -5 22901.2 356.942 15
-5 -3 3 21902.9 604.248 22
5 3 -3 24484.9 264.789 25
-3 -3 5 24750.2 517.633 22
3 -5 3 25559.8 381.759 9
5 -3 3 20990.8 768.197 20
5 3 3 27420 821.564 22
3 -5 -3 19465.3 738.837 21
5 -3 -3 20397.3 703.035 1
5 3 3 26140.5 803.433 23
-3 3 5 24040.3 776.778 1
5 -3 3 23638.1 370.532 25
3 -3 -5 23844.4 794.684 21
3 -3 5 23965.5 294.952 25
3 -3 -5 22819 741.755 1
-3 -5 -3 22862.7 367.703 15
3 -5 -3 23699.1 808.236 1
-3 5 -3 20160.8 725.19 20
-3 5 3 22592 741.572 21
-3 3 -5 23557 715.518 23
5 -3 3 24910.2 654.205 22
3 3 5 25174.6 826.844 1
-5 3 3 18424.6 507.713 23
5 3 -3 15054.2 622.005 20
-3 -3 -5 26379 464.975 21
5 3 -3 25487.1 773.076 21
-5 -3 -3 22989.7 271.027 26
3 3 5 25985.4 429.567 24
-5 -3 3 23078.3 335.05 19
-5 -3 3 23222.1 273.421 26
3 5 -3 21842.5 604.775 20
3 3 5 26673.7 797.61 23
5 -3 -3 22412.9 820.817 21
5 3 3 21809.8 731.688 1
-5 3 -3 19429.7 729.681 21
-5 3 3 27827.3 796.271 22
-3 3 5 25000.8 382.785 4
-5 3 -3 24769.8 765.578 23
3 -3 5 24926 918.889 20
-3 5 -3 23085.5 321.695 6
-3 5 3 22682.1 326.614 7
3 5 3 24563.4 775.527 1
-3 -5 -3 24188.3 733.751 1
5 3 -3 22496.5 526.199 23
5 1 5 25011.6 774.033 23
1 5 5 22331 795.032 1
-5 -1 5 21962.6 669.865 22
1 -5 -5 20119 352.381 8
-5 -1 5 25340.6 377.718 19
-5 1 -5 22015.5 742.531 20
-5 5 -1 20645.4 327.257 7
-1 -5 5 22155.6 411.004 4
5 5 1 20994.8 625.527 1
-5 -1 -5 22187.6 678.675 20
5 -5 1 20551.6 375.727 9
-5 1 -5 29447.8 432.989 13
-5 -5 -1 20811 355.845 15
-1 -5 5 15468 382.347 1
-5 1 -5 20803.9 736.548 23
-5 5 1 17417.6 716.449 21
-5 -5 1 19479 315.378 16
-1 -5 -5 21519.5 354.1 15
5 -1 -5 22541.3 825.859 21
5 1 -5 11970.5 316.028 1
1 -5 -5 20564.9 338.028 14
-5 1 5 21338.6 322.735 19
1 -5 -5 17745.3 644.873 21
5 -5 -1 17700.1 732.221 1
-5 1 5 25083.2 777.668 22
5 5 -1 24267.9 451.907 1
5 -5 1 21378 381.064 5
-5 5 -1 20617 324.201 6
-1 -5 5 12511.3 344.938 1
5 5 1 17596 693.46 23
1 -5 -5 21618.1 788.915 1
-5 -5 -1 19220.5 317.816 19
-5 -5 1 20560.1 316.424 12
5 -1 -5 20152.7 345.466 5
-5 1 5 21022.9 377.659 4
5 1 5 19671.3 729.969 1
5 1 -5 20829.1 310.738 8
5 5 -1 16755.1 621.26 23
1 -5 5 20691.4 356.884 9
-5 1 -5 20165.1 365.039 11
-5 5 1 20834.5 308.144 6
5 -1 5 23008.6 704.267 22
-5 1 5 19604 360.13 10
1 -5 5 22150.7 893.339 20
5 1 -5 23859.5 834.577 21
-1 -5 -5 17436.5 548.37 21
-5 -1 5 20110.5 349.62 4
-5 -1 5 20347.4 355.027 10
-1 -5 -5 20350.4 357.231 8
5 -1 -5 16508.7 547.608 1
-5 5 1 22253.6 679.838 22
1 5 -5 21516.4 775.749 20
5 1 5 24771.9 785.09 22
-1 5 -5 21887.6 805.106 20
-1 -5 -5 20489.1 351.505 14
5 1 5 22710.8 395.848 24
1 -5 -5 20201.8 322.918 5
5 5 -1 22455.3 650.944 22
-1 -5 5 19607.9 353.387 9
-5 5 -1 20442.2 583.872 22
5 -1 5 19384.1 764.731 20
5 -5 1 18905.2 764.24 20
5 -5 -1 20740.6 374.273 5
5 5 1 22309.6 721.388 22
5 5 -1 22303.1 554.071 21
5 5 -3 13672 507.47 23
3 -5 -5 17608.9 348.713 5
-5 3 5 17949.6 328.852 7
-3 5 -5 18602.9 746.343 20
-3 5 -5 18523.5 326.062 6
-5 5 3 19742.8 688.089 22
-3 5 -5 17442.2 646.368 23
-5 3 -5 19583.9 712.985 23
-5 3 -5 18298.1 731.764 20
5 3 -5 15935 697.294 20
3 -5 -5 16778.2 713.924 1
-3 5 5 17928.6 721.283 1
-3 5 5 18017.4 306.767 10
5 5 3 20319.6 723.067 1
5 5 -3 19610.3 212.057 25
3 5 -5 18949.5 715.729 20
5 -5 3 15378.1 712.518 20
-5 -3 5 17291.6 534.091 22
-5 3 5 13163.3 335.317 23
-3 -5 5 17280.6 291.327 19
-5 -5 -3 18156.9 292.437 18
-3 -5 -5 17780.8 344.097 14
-5 -3 -5 16940.6 346.424 11
-5 5 3 15686.9 688.021 21
5 3 5 20904.4 750.153 23
-5 -5 -3 17757.1 365.407 15
-3 5 5 17399 249.043 24
3 -5 -5 15040.1 667.561 21
3 5 5 18569.8 728.794 23
-5 -5 -3 22692.5 349.305 12
-5 -5 3 17580.1 348.752 16
-5 5 -3 16759.1 669.739 23
-5 -3 5 19178.8 238.485 26
3 -5 5 19480.3 357.639 9
5 -3 -5 14850.9 612.241 1
5 -5 -3 14247.3 662.208 1
5 -3 5 18207.7 325.662 25
-5 -5 3 18896.6 345.445 12
5 -3 5 19283.4 564.78 22
-3 -5 5 18197.9 369.772 16
5 -3 5 16533.3 742.588 20
5 5 -3 16950.4 640.44 21
5 3 -5 23578.9 856.002 21
-5 -5 3 17516.7 338.793 19
-3 5 -5 18945.1 331.777 2
5 -5 3 18894 372.776 9
3 -5 -5 17751.4 332.671 8
5 5 3 18701.9 691.947 22
-5 -3 -5 18199 316.108 14
-5 -3 5 19087.8 333.768 19
-5 5 -3 13761.6 674.503 21
5 3 5 16789.6 695.306 1
-3 -5 -5 17691.1 366.191 15
3 5 5 19941.8 779.409 1
3 -5 -5 18918.1 313.703 14
-5 -3 5 18836.9 324.594 10
5 -3 -5 17012.7 343.345 5
5 -5 -3 18402 379.018 5
-5 -5 -3 17117.1 289.205 19
5 3 5 21008.3 420.574 24
-5 3 5 18692.9 367.445 10
-3 5 5 17868.5 720.224 21
-3 5 5 17600.5 344.298 7
-3 -5 -5 15398.7 467.992 20
5 -3 -5 17827.9 294.152 8
-3 -5 5 18875.1 337.389 4
5 5 3 18288.2 754.437 23
5 5 -3 15257.4 495.025 20
-5 5 3 18615.3 336.336 10
-5 -3 5 17909 314.964 4
3 5 -5 20152.6 359.257 2
-5 -5 5 15060.6 286.772 4
-5 5 -5 15111 287.095 2
5 -5 -5 14359.8 309.115 8
-5 -5 5 15910.1 283.444 10
-5 5 5 14989.8 337.652 10
-5 5 -5 15210 344.164 6
5 5 -5 16219.8 318.204 2
-5 -5 5 14906.6 333.69 19
5 5 -5 16141.9 693.362 21
-5 -5 5 14197.7 359.852 16
5 -5 -5 13547.4 354.055 5
5 -5 5 16064.6 352.72 9
-5 -5 -5 14386.7 374.975 15
5 5 -5 14501.3 605.519 20
-5 -5 -5 15617.2 302.502 18
-5 -5 -5 14575.5 326.788 14
-5 -5 -5 14204.2 250.583 19
6 0 0 4522.39 324.619 22
-6 0 0 3702.32 263.399 23
-6 0 0 3993.68 293.291 22
0 -6 0 3971.95 276.522 20
0 0 6 4820.54 303.334 1
6 0 0 3532.49 247.014 23
6 0 0 4114.56 275.869 20
0 6 0 3226.22 260.708 21
0 -6 0 3738.52 282.797 1
6 0 0 3843.74 152.078 25
-6 0 0 3763.43 266.474 21
6 0 0 3360.55 265.071 21
6 0 0 3530.63 89.7404 24
2 -6 0 56627 1153.07 20
0 6 -2 56169.6 1013.26 20
6 2 0 66117.7 1252.9 22
6 0 -2 63291.8 1038.3 1
0 -2 -6 66050.4 1379.95 20
0 6 2 54828.4 983.686 21
2 6 0 50613.8 914.793 21
-2 -6 0 58466.2 1001.23 1
0 2 6 70074.9 1295.07 1
6 0 -2 68439.5 1281.82 21
-2 0 -6 68438.9 1334.2 20
6 -2 0 61207.4 640.813 25
-2 -6 0 32381.9 635.437 20
2 -6 0 61031.3 1251.09 1
0 -2 6 70398.8 1088.02 1
6 0 2 63205 505.183 24
2 6 0 75245 1084.58 1
0 -6 -2 59503.2 1234.91 1
0 -6 -2 64267.8 1013.19 20
0 2 -6 67132.3 1397.18 20
-2 0 -6 65625.4 1124.37 23
0 -2 -6 74558.3 1299.6 1
6 0 2 54672.3 1036.81 20
6 0 2 61011.4 1140.67 23
0 2 -6 67795.4 895.117 23
0 -6 2 54723.9 1183.18 20
-2 6 0 53604.4 1180.7 21
-6 2 0 58165.7 1084.37 23
0 2 6 70708.7 628.27 24
-2 0 6 70297.4 1098.03 1
0 -6 2 57534.7 1025.47 1
0 6 2 68045.7 1295.22 1
6 -2 0 66799.1 1263.84 20
-6 0 -2 62403.3 1217.78 23
0 2 6 60061.6 963.623 23
6 2 0 61125.4 839.673 20
2 0 6 65567.8 1033.77 23
-6 2 0 54414.8 1140.39 21
-6 0 2 59135.3 924.266 23
6 2 0 66376.5 922.304 21
-6 2 0 62691.4 1162.41 22
2 0 6 67488.2 1289.37 1
0 -2 -6 78115.4 1313.02 21
6 0 -2 60224.6 589.985 25
6 2 0 72403 1172.47 23
-2 -6 -2 4078.13 162.322 15
2 -6 -2 4237.71 159.479 5
6 2 2 2416.48 166.144 20
2 6 2 3276.48 185.068 21
-2 6 -2 4105.85 135.607 6
2 2 6 4733.39 296.022 23
2 6 -2 4260.1 157.649 22
6 -2 -2 3951.13 301.668 1
-2 -2 -6 3842.34 303.214 20
-6 2 2 4403.13 320.516 22
-2 -6 -2 2460.16 136.004 20
6 2 -2 3779.17 191.503 1
6 2 -2 4341.72 145.327 25
2 -6 2 3845.29 302.923 1
6 2 -2 4155.84 243.705 23
6 2 2 4693.13 329.396 23
-6 2 -2 4256.98 301.493 22
6 2 2 3273.61 280.181 1
-2 6 -2 4018.33 158.774 22
-6 2 2 4637.8 161.887 10
-2 -6 2 2951.06 178.97 1
2 -6 -2 3938.62 286.298 20
2 6 2 4624.86 324.18 1
2 -2 -6 4613.32 322.307 1
-2 2 6 4132.64 156.835 4
-6 -2 2 4132.92 140.734 12
-6 2 -2 3500.18 289.44 21
-6 2 2 3686.65 321.911 21
6 -2 -2 3706.36 335.303 21
2 2 -6 4822.39 397.769 20
-6 2 2 3650.94 238.342 23
-2 6 2 3867.05 302.31 21
-2 2 6 4549.14 318.815 1
6 -2 2 4137.89 330.301 20
-6 2 -2 4183.6 314.324 23
6 2 -2 4340.86 299.394 21
-2 2 6 4016.61 148.292 10
-2 6 -2 3047.66 304.15 21
6 2 2 4754.72 354.364 22
-2 -2 6 4993.92 230.848 1
-2 2 6 3073.83 157.746 23
-6 -2 2 4172.48 297.833 22
-2 6 -2 3368.52 284.597 20
-2 -2 6 4341.95 168.185 4
2 -2 6 4166.55 310 1
2 -2 -6 4476.9 340.013 21
2 -2 -6 4153.18 139.16 8
2 -6 2 3630.84 342.646 20
-2 -2 -6 4881.34 287.171 21
6 -2 -2 3999.16 310.134 20
6 -2 2 4189.6 303.309 22
2 -2 6 4377.44 186.333 4
2 6 -2 3883.72 236.452 20
-2 2 -6 4044.91 272.7 23
-2 -6 -2 4323.81 314.642 1
6 2 -2 4165.11 302.088 22
0 -6 -4 3989.41 165.074 8
4 6 0 4399.77 290.122 22
-6 0 -4 3761.51 318.971 23
-4 0 6 5014.3 336.05 22
6 4 0 3818.86 242.277 1
4 0 -6 5138.15 398.394 21
0 4 -6 4438.87 168.356 2
-6 -4 0 4420.07 153.537 12
6 0 4 4606.45 341.724 22
-6 0 4 4395.33 322.728 22
0 -6 -4 4001.68 157.324 14
0 -4 6 4706.9 207.905 4
6 0 -4 2798.85 204.519 1
0 -4 -6 4070.06 285.879 21
4 6 0 3287.68 189.739 21
0 -4 -6 4710.37 359.672 1
6 0 -4 4019.51 345.903 21
4 0 6 5103.01 342.655 22
6 -4 0 4376.27 163.544 5
0 -6 4 4057.03 169.235 9
-6 4 0 4246.07 140.83 6
0 4 -6 3979.36 248.918 23
-6 0 4 4356.26 155.797 19
0 4 6 4728.29 174.617 24
-4 0 -6 3560.33 293.47 23
-6 0 -4 5749.97 192.163 13
0 4 -6 4807.44 385.417 20
-6 4 0 3974.4 307.709 23
4 6 0 4488.55 259.876 1
0 6 -4 4138.1 323.894 20
-6 0 -4 3990.12 287.882 20
-4 0 6 4257.76 171.448 4
-4 0 6 4123.16 132.495 19
0 -6 -4 4345.06 163.831 15
4 0 -6 4331.46 148.363 8
0 6 4 3808.53 279.216 21
0 6 4 4547.63 361.5 1
-4 0 -6 4259.43 339.707 20
-6 4 0 4489.65 307.544 22
4 0 6 4320.11 310.359 23
-6 0 4 4032.18 139.706 12
0 -6 4 3723.09 364.178 20
6 4 0 4555.69 181.616 21
0 4 6 4050.11 338.89 1
0 6 4 4023.22 143.121 7
6 4 0 4422.26 327.126 23
6 0 4 3981.06 312.53 23
0 -4 6 3925.54 148.489 9
6 0 -4 3917.25 142.856 5
-4 -6 0 4058.64 154.982 3
6 4 0 4544.24 334.948 22
-6 4 0 3102.6 312.304 21
-4 -6 0 4085.86 164.331 15
6 0 4 3981.28 154.1 24
-4 6 0 4157.49 146.563 7
-6 0 -4 3344.15 236.29 21
-6 -4 0 4064.31 130.422 26
6 -4 0 3053.49 295.064 1
0 -4 6 3758.54 237.173 1
-6 0 4 4352.23 168.865 10
-4 6 0 4558.52 277.146 22
0 4 6 3538.25 261.394 23
6 0 4 3513.13 308.186 20
4 0 -6 3872.28 235.604 1
4 -6 0 4268.29 180.927 5
6 -4 0 3968.28 343.833 20
-4 -6 0 3734.45 146.503 17
-4 6 0 2905.05 300.625 21
4 -6 0 3671.29 327.067 20
0 -6 4 3147.05 226.449 1
-4 0 -6 4128.01 165.062 11
-6 -4 0 3919.99 146.784 19
4 -6 -2 38254.9 1100.66 1
4 -2 -6 41080 949.95 1
-6 4 -2 52725.8 508.348 13
-2 -4 -6 44161.6 534.908 8
4 -2 -6 44400.9 474.508 2
-2 -6 -4 43858 463.766 3
-4 6 2 47964.8 998.263 22
-2 6 4 43350.8 1154.13 1
6 2 -4 51458.5 1186.67 21
-4 -2 6 45657.6 565.493 4
4 2 -6 48348.8 487.974 2
4 6 2 47882.3 1047.47 1
-6 -2 4 51923.4 593.011 19
6 4 -2 44916 936.144 23
-2 6 -4 43551.3 479.933 6
2 6 4 49434.6 1175.53 1
6 4 -2 48889.4 477.208 25
-4 -6 -2 45461.9 531.526 19
-6 4 2 37331.5 875.896 23
6 -2 -4 45072.2 1203.36 21
4 -6 -2 44705 596.279 5
-4 -2 6 52653.5 521.32 19
-2 4 6 45117.7 565.972 4
2 -6 4 46235.1 477.813 3
-6 -4 2 46306 453.142 13
-2 -4 6 43596.2 535.742 16
-6 2 -4 39551.6 1009.86 20
-4 -6 2 45332.1 550.75 16
6 -2 -4 34575.9 887.432 1
2 -4 -6 43589.7 508.502 5
-6 2 4 36501.9 588.763 23
-4 6 2 44211.9 504.617 7
4 -6 2 37049.9 1091 20
-4 -6 2 45709.4 555.672 15
-2 6 4 41977.8 1053.94 21
-4 -2 6 45746.2 548.865 10
-6 4 -2 43346.1 915.347 22
-6 -4 -2 42530.7 453.046 19
-2 -6 -4 43953.4 649.796 20
4 2 6 53007.4 642.969 24
-2 4 6 46769.8 1165.38 1
-4 -2 -6 41402.9 743.512 21
-2 -4 -6 44352.6 538.374 15
-6 -2 -4 43269.9 525.675 11
-2 4 6 48113.7 483.377 24
-6 -4 -2 44263.3 537.569 15
4 -2 -6 45615.4 555.695 5
2 -4 6 45052.1 478.585 22
-6 4 2 50175.6 1081 22
-4 -2 6 49966.4 915.948 22
-2 -4 6 31783.9 388.559 22
-6 4 2 45755.8 504.387 7
6 -4 2 44303.6 554.828 9
6 4 -2 49025.3 943.115 21
2 -6 -4 33670.5 985.021 21
2 -6 -4 42636.1 1152.36 1
-4 -2 -6 44878.2 568.714 15
-4 2 -6 46396.5 558.19 11
-2 4 -6 50546.9 564.659 2
2 4 -6 50036.6 1251.71 20
-4 6 -2 42627.6 736.159 22
-6 4 -2 35055.1 1030.04 21
4 6 2 47431.1 1042.79 22
-6 -2 -4 63130.1 648.191 13
6 4 -2 47795.9 1010.83 22
-6 -4 -2 49491.6 499.578 13
-4 2 6 41440.9 491.228 7
4 2 -6 46291 1278.84 20
4 2 -6 56431.6 1395.92 21
-6 2 -4 36078.1 967.529 21
-4 2 -6 43263.2 524.573 6
6 -4 -2 37031.8 1043.4 1
-2 -6 4 43078.2 469.923 19
4 -6 2 35097.7 1009.6 1
-4 -6 2 45071.9 480.611 12
-6 2 -4 43831 501.442 6
2 -4 -6 43590.2 522.189 8
-2 4 -6 44647.3 490.041 6
-6 4 2 46045.4 440.101 13
-4 2 -6 45344.6 463.454 2
6 -4 -2 45459.2 562.789 5
6 4 2 44333 994.611 1
4 -6 2 48272.5 606.271 9
-2 4 -6 44676.3 988.082 23
-4 2 6 43075.6 597.704 4
-4 2 -6 45433.6 1153.5 20
2 -4 -6 42478.4 1070.69 21
2 -6 -4 44467.5 557.216 5
-6 -2 -4 45136.6 568.098 15
-6 4 -2 45459.9 495.511 6
6 -4 -2 37197.1 1128.93 21
-6 4 -2 43518 1092.34 23
-2 -4 6 46858.7 597.716 4
-6 -4 2 44116.1 532.856 19
-2 -6 4 42478.6 461.253 3
-4 2 -6 48899.3 1097.13 23
-4 2 6 43134.4 559.923 10
-4 6 -2 42536.1 509.535 6
-6 -2 4 44325.7 531.934 12
6 -2 4 48288 1016.59 22
2 4 6 46562.1 1106.41 23
6 4 -2 23516.2 633.064 20
-4 6 -2 34699.9 1064.39 21
6 -2 4 39606.8 1107.51 20
-6 -4 2 45295.9 441.509 26
-6 -2 4 46768 542.475 10
6 2 4 47042.4 595.61 24
-4 6 2 37841.2 1045.43 21
2 4 -6 51802.4 585.329 2
2 4 6 49135.6 633.721 24
2 -4 6 45419 498.067 9
2 4 6 48695.2 1221.43 1
-4 -6 -2 44029.2 499.35 18
2 -6 4 39728.7 1173.63 20
4 -2 -6 44197.7 506.242 8
-6 2 -4 45010.7 1091.08 23
-4 -6 2 42625.1 528.416 19
2 -4 -6 45247.5 1124.71 1
-6 2 4 44518.7 463.026 7
4 2 6 47349.3 1203.09 1
6 -2 4 46085.7 578.102 25
6 2 4 34367.4 1064.61 1
2 -6 4 35695.7 880.873 1
-4 -2 -6 44572 570.464 11
-2 -6 -4 47489.2 539.129 18
4 2 6 53955.3 1125.68 23
6 2 4 51813.4 1167.77 23
4 -6 -2 43310.7 547.122 9
-2 6 4 44475.8 525.843 7
-6 -2 4 42674.2 949.55 22
-2 4 6 43630.8 501.783 10
-2 4 -6 46780 1254.97 20
4 6 -2 48967.1 801.114 22
-6 2 -4 62522.2 637.35 13
4 -2 6 51026.2 946.977 22
-6 2 4 45778.2 583.75 10
-2 -4 -6 44995.9 1011.31 20
-6 -2 4 46241 408.309 26
-4 -6 -2 43728.7 512.199 3
2 -6 -4 41636.8 541.956 8
-4 -2 -6 43004.9 469.929 2
-2 -6 -4 45211.2 584.556 15
-2 -6 -4 47471.1 1130.68 1
2 -4 -6 45839.3 508.33 14
6 4 2 51735.5 1180.41 22
4 6 -2 44146 636.145 20
4 -2 6 44490 1237.68 20
-6 -4 -2 44840.6 439.568 26
2 -6 4 47109 590.245 9
2 6 -4 46539.9 1038.65 20
-6 -4 -2 53145.1 557.647 12
2 4 -6 29419.4 561.561 23
2 -6 -4 45096 471.668 3
-4 -6 2 42667.5 509.772 3
-4 -6 -2 44514.8 496.274 17
4 -6 -2 42985.4 1053.52 20
6 4 2 48336.5 1165.33 23
-2 -4 -6 45506.5 796.331 21
6 -4 2 39568.2 1124.27 20
-6 -2 -4 43560.7 396.702 26
6 -2 -4 45603.2 530.53 5
-4 6 -2 46010.9 503.559 7
6 -4 -2 45582.8 1126.27 20
-2 6 -4 43618.6 1109.38 20
-4 -2 -6 48962.6 1024.77 20
-4 2 6 46528 1005.44 1
-6 4 4 3942.45 164.92 7
-6 -4 -4 3585.66 122.356 19
4 -6 4 4368.67 194.916 9
-4 -6 -4 3706.63 147.328 19
-6 -4 4 4236.34 148.177 10
-4 4 -6 4153.35 159.827 2
6 4 4 3371.67 310.895 1
4 -4 6 3515.59 205.574 22
4 -4 -6 3741.39 155.572 8
-4 -4 -6 4130.75 258.964 20
6 4 -4 2781.03 287.376 20
-4 4 6 3225.12 301.568 1
6 -4 -4 3751.21 131.035 8
6 -4 4 3692.26 163.75 25
-4 -4 6 3775.77 174.2 16
-4 -6 -4 4205.86 159.404 17
-4 -4 6 3787.47 164.575 4
-4 4 -6 4022.62 171.71 6
4 -4 6 4097.55 156.124 9
-4 6 4 3999.09 172.914 7
-4 -6 4 3758.53 149.241 3
4 -4 -6 4018.29 140.524 14
-4 4 6 3748 164.845 10
-6 -4 4 3942.84 176.353 19
-4 -6 4 3624.32 164.494 19
-6 4 -4 2782.26 307.348 21
-4 6 4 3969.44 148.377 10
4 4 -6 3981.43 356.02 20
-4 -6 -4 3936.7 160.465 18
-4 -4 -6 3679.08 153.035 8
-6 4 4 3069.64 222.167 23
6 -4 4 3978.2 165.923 9
-4 -6 -4 3636.71 163.749 14
-6 4 -4 4938.43 175.642 13
-6 -4 -4 3793.3 178.82 15
4 -4 6 3679.7 131.112 25
-4 -6 -4 3836.31 149.654 3
-6 -4 4 3866.07 124.651 26
4 -4 -6 3153.14 310.255 1
-4 6 -4 3750.11 169.258 6
-6 4 4 3836.36 174.558 10
-6 -4 -4 3776.84 143.726 14
4 6 4 4054.98 350.431 1
-4 4 -6 4065.55 174.886 11
-6 -4 -4 4309.63 170.156 13
-4 4 -6 3911.11 318.274 23
4 4 6 4256.23 201.675 24
-4 -4 -6 3875.18 168.781 14
-4 -4 6 4092.04 158.752 10
6 -4 -4 2445.46 279.322 1
-4 -4 6 3129.28 188.134 22
6 4 -4 4181.34 341.418 21
4 4 -6 4311.27 167.946 2
4 6 -4 3397.35 258.614 20
-6 4 4 3922.83 128.319 6
-4 -4 -6 3515.07 175.244 15
6 -4 -4 3633.56 172.965 5
-4 -4 6 3834.23 150.902 19
-4 -6 -4 3665.45 182.981 15
4 -6 -4 3600.55 158.978 8
-6 -6 0 33783.7 518.39 19
-6 0 6 33049.3 550.371 4
6 0 -6 35369.3 458.054 8
0 6 -6 35098.3 559.235 2
-6 0 6 34462.9 403.129 7
-6 6 0 35660.4 492.129 6
6 0 6 28624.9 923.554 20
-6 -6 0 33678.5 515.673 15
0 -6 -6 35258.9 481.098 5
0 -6 6 24425.1 604.369 1
0 6 6 34580.5 528.172 24
6 6 0 37227.4 938.401 22
0 -6 6 36415.6 671.208 4
0 -6 -6 26525.8 783.856 21
0 6 -6 36873.7 429.843 6
0 -6 -6 33232.1 522.912 14
-6 -6 0 35457 475.388 12
0 -6 6 34754.7 550.787 9
-6 0 -6 35000.9 933.873 20
-6 0 6 33713.2 474.611 12
-6 -6 0 33719.7 443.903 16
-6 6 0 33884.5 828.724 22
0 -6 -6 36174.8 516.193 15
-6 0 6 37625.5 503.424 19
0 -6 -6 34898.4 377.138 3
-6 0 -6 34174.2 556.266 11
-6 6 0 35361.4 507.392 7
-6 0 -6 27921.3 739.469 21
-6 0 6 34960.2 573.733 10
6 -6 0 35234.8 587.253 5
0 -6 6 33616.4 442.876 10
6 -6 0 34155.9 568.9 9
-6 -6 -2 3645.03 184.462 15
2 -6 -6 3840.02 128.604 3
-6 -2 6 3499.58 172.317 4
-2 -6 -6 2774.37 252.493 20
-6 -2 6 3751.13 181.302 10
6 -2 -6 3392.92 173.648 5
6 2 -6 3545.29 160.897 8
6 -2 -6 2192.14 229.69 1
-2 -6 6 3695.78 185.373 4
-6 -2 6 4771.57 204.18 19
-6 2 6 3394.51 187.816 10
-6 -2 6 3699.01 104.973 26
-2 -6 6 3453.3 133.626 19
-6 -6 2 3651.8 172.085 16
-2 -6 -6 3403.64 176.029 15
-2 -6 6 3575.82 190.86 16
6 -2 6 3761.94 296.225 22
-6 6 2 3611.29 157.79 6
6 -6 -2 3611.07 193.821 5
6 -2 -6 3490.18 145.024 8
-6 2 -6 3384.39 118.241 2
2 -6 -6 3560.37 166.667 14
-6 -6 -2 3595.5 168.443 19
-6 -6 -2 3363.35 125.055 13
-2 6 6 3601.63 142.68 24
6 2 6 3996.03 192.503 24
-6 -6 2 3798.32 123.172 13
-2 6 -6 3828.12 165.682 6
2 -6 -6 3754.32 89.6801 27
-6 -6 -2 4132.26 163.214 12
-2 -6 -6 3494.12 121.809 3
-2 -6 -6 3172.92 179.417 8
-6 -2 6 3456.9 281.227 22
-6 6 -2 3575.93 171.757 6
-6 2 6 3513.58 150.596 7
-6 2 6 3374.8 130.102 12
-2 6 -6 3773.78 179.16 2
2 -6 -6 2652.42 289.592 21
-6 -2 -6 3559.4 267.889 20
-6 2 -6 3562.64 190.182 11
-6 -6 2 3387.99 158.272 15
6 6 2 3897.97 306.058 1
6 -2 6 3802.56 171.144 25
-6 -6 2 3919.59 170.012 12
-6 6 -2 3990.83 177.355 7
6 6 -2 2195.85 233.733 23
-2 6 6 3590.42 140.557 10
2 -6 -6 3265.1 172.188 8
-6 -6 2 3490.89 178.905 19
-6 2 -6 2733.24 284.786 21
-6 -2 -6 3596.38 103.414 26
2 -6 -6 3357.62 165.079 5
2 -6 6 3841.85 187.582 9
2 6 -6 3899.66 186.789 2
6 -6 2 3639.48 194.8 9
-2 6 6 3599.33 177.299 7
-6 -4 6 33067.6 551.758 19
-6 -6 4 28762.8 530.04 19
4 -6 -6 25246.8 486.824 8
6 4 6 29705.1 568.678 24
-4 -6 -6 28397.4 401.672 19
-6 -4 6 30073.3 485.146 10
-6 -4 -6 29509.9 391.198 18
-4 -6 -6 29132.2 491.121 18
-4 6 -6 29541.6 502.962 6
-6 -6 -4 25762.4 353.395 17
4 6 -6 31426.3 525.765 2
6 6 -4 27869.9 417.419 2
6 -4 -6 28584.9 463.565 8
-4 -6 6 27143.7 548.962 16
-4 6 6 28136 523.708 7
6 -6 -4 26063.6 429.966 8
-6 4 -6 28220.3 547.038 11
-4 -6 6 28626.3 465.269 4
-6 -4 -6 28108.7 472.996 14
6 -4 -6 27608.8 544.379 5
4 -6 6 30262.6 525.472 9
-6 -6 4 27937.3 378.59 13
-4 6 -6 28601.9 477.501 2
-4 6 6 27234.5 464.428 10
-6 4 -6 27240.7 376.475 2
-6 -6 4 27912 535.904 16
4 -6 -6 25051 514.2 5
-4 -6 -6 27587.4 517.248 14
-6 -6 4 28021 512.917 12
-6 -4 6 28281.2 541.481 12
6 -6 4 29520.9 543.581 9
-6 -4 6 28252.1 456.882 4
6 -4 6 27055 437.702 25
-6 4 6 25988.8 527.263 10
6 -6 -4 26264.9 555.295 5
-6 6 -4 25360.2 369.887 2
-4 -6 -6 26666.8 549.805 15
6 4 -6 27455.2 395.925 2
-6 6 4 28820.1 433.427 6
-6 -6 -4 26089 412.269 19
6 -4 6 28878 435.42 9
4 -6 -6 28564.4 391.078 3
-4 -6 6 27569.8 453.659 19
-6 -6 -4 27216.7 424.536 18
-6 4 6 27225.1 479.177 7
-6 -6 -6 2546.62 125.042 19
6 -6 6 2760.32 173.948 9
-6 6 -6 2435.34 134.422 2
-6 -6 -6 2428.34 187.115 15
6 6 -6 2571.99 149.034 2
6 -6 -6 2588.28 194.378 5
-6 -6 6 2882.22 192.064 12
-6 6 -6 2792.43 186.845 6
-6 -6 6 2683.17 182.969 19
-6 -6 -6 2471.59 142.901 18
-6 -6 -6 2487.45 163.94 14
6 6 6 2648.85 189.628 24
6 -6 -6 2474.32 153.68 8
-6 6 6 2294.86 164.341 10
1 7 1 16061.6 529.913 21
1 -7 1 20925.7 255.19 27
-1 7 1 15904.4 609.89 21
-1 7 -1 19926.6 311.839 6
-1 -7 -1 13637.8 471.679 20
-1 -7 1 16470.3 569.599 1
1 -1 -7 20061.3 334.371 2
1 -1 7 22240.1 719.814 1
1 -7 1 21358.3 375.343 9
-1 -1 7 23900.5 655.677 1
-1 1 -7 22312.7 613.868 23
7 1 -1 22026.2 387.921 25
1 7 1 20299.5 696.273 1
1 -7 -1 22295.9 404.218 5
7 1 1 22613.3 778.457 22
7 1 1 20027.7 290.919 24
-1 -7 -1 18091.5 656.947 1
1 -1 7 20952.5 402.908 4
1 -7 1 22905.8 444.729 15
-1 -1 -7 20872.6 323.982 8
-7 1 -1 19823.4 694.05 22
1 -7 1 17072.7 655.262 1
7 1 -1 20287.1 594.885 23
1 -7 -1 22996.2 428.12 15
1 -7 1 17666.2 676.941 20
-7 1 1 23607.7 338.456 19
-1 -7 1 20645.5 368.093 19
-1 -1 7 21758.7 413.783 4
-7 1 -1 19907.1 690.679 23
-7 1 1 21574.7 330.961 13
-1 -7 -1 19722.2 335.31 18
7 -1 1 21642 419.991 25
-7 1 1 22175.4 737.134 22
1 -7 -1 18285.4 633.863 20
-1 7 -1 15998.9 663.923 21
7 -1 -1 19671.9 379.213 25
1 -7 -1 20021.2 322.501 18
7 1 1 22970.1 423.546 25
7 1 -1 21622 752.841 22
-1 1 -7 21742.4 315.095 8
-7 1 -1 23365.6 354.304 13
-7 1 -1 17035.8 609.657 21
7 1 1 17142.8 543.75 20
-7 1 -1 23677.7 347.675 12
-7 -1 -1 24383.9 368.526 12
-7 1 1 22466.4 316.589 12
-1 7 -1 21936.8 437.41 22
-7 -1 1 21824 341.012 12
1 1 -7 21488.5 341.562 2
-7 1 1 20575.8 631.311 23
-1 -1 -7 25285.8 779.964 21
1 1 -7 22207.7 343.251 8
-7 -1 1 18376.9 682.049 22
1 1 7 23803.4 593.625 23
-7 -1 1 25248.5 381.549 19
1 -7 1 21807.9 366.661 3
1 -7 1 21766.3 345.739 17
-1 1 7 20332.6 383.651 4
1 7 -1 15010.7 594.659 21
7 1 1 22270.6 707.249 23
-1 -7 1 20993 359.913 3
-1 1 7 23530.2 728.018 1
-1 -1 -7 23353 857.854 20
-1 -7 1 20479.3 253.766 27
-1 1 7 20155 371.974 10
1 1 7 23524.7 779.115 1
7 -1 -1 17958.9 712.92 21
7 1 -1 18965.9 647.133 21
-1 -7 1 19910 347.458 9
-7 1 1 20467.9 729.331 21
1 -1 -7 25570.9 856.285 21
-1 -7 1 19839.4 347.807 17
1 1 -7 22747.9 896.451 20
-1 -7 1 15399 587.809 20
7 -1 1 21261.4 743.314 22
-1 1 -7 21914.2 825.103 20
-1 -7 -1 22024.8 421.705 15
7 -1 1 18920.7 669.341 20
1 1 7 21507 383.737 4
1 -1 -7 22426.4 870.43 20
7 -1 -1 20757.4 685.21 20
7 1 -1 20640.4 598.78 20
1 -7 -1 19035.2 728.308 1
-3 -1 -7 20952.2 771.093 20
1 7 3 18600.1 727.287 1
-3 7 -1 19023.6 310.847 7
-7 -3 1 18222.1 290.078 26
3 -7 -1 17860.4 293.262 18
3 1 -7 18674 842.257 20
-1 3 7 19575.8 726.406 1
1 -7 -3 17933.2 328.024 18
-3 -1 -7 19025.1 364.357 15
-3 7 -1 18114 458.047 22
-7 1 3 15603.4 443.281 23
1 3 7 21109.5 785.007 1
-7 3 -1 18017.5 644.254 22
3 -1 -7 18923.8 331.883 2
-1 -7 3 18739.6 342.329 19
-1 -3 -7 18247.9 335.612 8
1 -7 -3 17363 737.687 1
1 -7 3 19147.5 314.034 19
7 -3 -1 19363.7 336.86 5
7 -1 3 15679.1 661.753 20
-3 7 1 14186.3 634.604 21
7 -1 3 20280.2 719.134 22
-3 7 1 18342.8 312.658 7
-1 3 7 18993.2 364.921 4
7 1 3 11821.5 476.581 20
-1 -7 -3 18212.1 718.928 1
3 -7 1 14632.3 657.51 1
-3 7 -1 18341.6 329.534 6
7 -3 -1 15927.8 682.022 1
3 -7 1 19928.2 316.945 17
-7 -1 -3 24007.2 405.153 12
-7 1 -3 23449.3 394.509 13
1 -3 7 18671.8 619.496 1
-7 3 1 18510.4 311.949 7
-3 -7 1 17974.3 350.865 3
7 3 -1 19825.9 360.96 25
1 -3 -7 21114.2 748.087 1
7 1 3 18362.6 327.621 24
1 7 3 14029.6 468.038 21
-1 7 3 14199.3 563.903 21
-1 -7 -3 18640 390.145 15
-3 1 7 21801.4 675.262 1
-1 -3 7 20366.6 535.752 1
-1 -7 3 11214.7 408.958 1
-3 -1 -7 18121.2 323.248 2
-7 -1 -3 18056.9 335.605 11
3 7 1 20892 657.392 1
7 1 -3 11685.9 395.31 1
-7 -1 3 19592.9 370.218 10
3 -1 7 18969.5 715.592 1
3 1 7 17772.9 345.111 4
7 -1 -3 18539.3 756.317 21
1 -3 -7 17807.3 314.897 5
-1 3 -7 17734 305.063 6
3 1 -7 19091.3 325.869 2
1 -7 3 12642.5 536.724 1
7 -1 -3 13846.7 543.464 1
-3 -7 1 13330.1 423.538 1
1 -3 7 20098.1 458.202 4
-3 -7 1 18388.3 370.857 19
1 -7 -3 17985.3 235.218 27
7 1 3 18968.8 697.407 23
-7 -1 -3 17620.7 337.958 15
7 3 -1 18576 546.462 21
7 3 -1 19619.3 624.486 23
-7 3 -1 18764.6 693.044 23
-7 3 -1 21037.2 337.514 13
-7 -3 -1 20231.6 334.083 13
-1 -3 -7 20889.6 640.552 21
1 -3 -7 19448.6 706.142 21
-3 -7 -1 16989.5 583.586 1
-7 -3 1 19582.1 321.082 13
-7 3 1 19031.2 311.145 13
-1 -3 7 18597 413.465 4
3 1 -7 24657 925.689 21
1 -3 7 19798.5 181.609 25
-7 -3 1 18361.4 338.176 19
1 3 7 19129.7 597.583 23
-3 -7 1 18230.4 394.134 15
-3 1 7 18443.8 387.85 4
-3 1 -7 19549.7 360.468 11
-7 -1 3 18096.1 328.471 12
1 3 -7 19668.6 358.141 2
-1 7 -3 17949.4 300.493 6
-7 1 -3 18463.8 715.54 23
7 -3 1 16679.8 699.545 20
-3 -1 -7 18553.4 369.825 11
-3 -7 1 16809 316.013 9
-1 -3 7 19092.9 371.147 10
-3 -7 -1 17442.5 345.389 17
1 -3 -7 17080.3 342.063 2
3 -7 -1 13918.4 668.194 1
-3 1 -7 18136.5 317.897 2
7 3 1 20270.4 707.443 23
-1 3 -7 17980.9 553.508 23
3 -7 1 15212 682.126 20
-7 3 -1 14453.3 645.141 21
-1 7 3 17766.6 736.252 1
3 1 7 19958.6 762.242 1
7 3 1 15692.4 552.412 1
3 7 -1 19930 511.498 22
-7 1 -3 16020.8 281.956 6
7 3 -1 13391.5 425.273 1
-7 3 1 15936.4 591.277 23
1 -7 -3 18603.7 336.39 3
3 -1 -7 20042.4 631.07 1
-7 -3 -1 18160.4 308.108 19
1 3 7 20750.4 390.478 24
-7 -1 3 17534 662.475 22
-3 1 -7 18298.9 642.424 23
-3 1 7 17851.6 370.153 10
-7 -3 -1 18137.9 311.835 15
-3 -1 7 18659.3 373.53 10
3 1 -7 19407.6 349.653 8
-1 3 7 17622.3 340.489 10
-7 3 1 18856.8 681.928 22
1 -7 3 16402.4 726.414 20
7 3 1 20732.5 764.405 22
7 -3 -1 14426.7 699.147 21
-1 -7 3 17986.6 333.088 3
7 3 -1 20503.9 735.983 22
1 3 7 17562.6 337.921 10
1 3 7 18314.2 333 4
-3 -1 7 22199.2 558.758 1
3 1 7 20676.3 652.879 23
1 -7 3 18021.5 237.782 27
1 -7 3 18795.5 340.26 3
-1 -7 -3 16402.6 484.461 20
-7 3 -1 18737.9 320.537 7
-1 -3 7 17356.8 299.131 16
-1 3 7 16074.8 451.755 23
3 7 1 13435.1 372.538 21
-7 1 -3 14526.2 555.866 21
7 1 -3 19458.7 727.49 21
1 -7 -3 19813.9 388.672 15
-7 3 1 14952.8 665.175 21
3 -1 -7 21120.2 821.008 21
-7 -1 -3 12824.7 380.51 21
-1 -7 3 15490.4 661.704 20
-1 -3 -7 19271.3 753.435 20
3 -1 7 19265.1 417.035 4
1 3 -7 19431 812.354 20
-1 3 -7 19503.4 789.451 20
-7 1 3 18786.1 300.395 12
-3 1 -7 19949.4 766.352 20
-1 -7 -3 18054.3 330.374 3
-1 -3 -7 18881 328.709 15
7 -1 -3 18408.4 315.059 5
3 -7 -1 16236.1 663.829 20
1 7 -3 16460.4 578.173 20
7 3 -1 15656.5 398.758 20
7 -3 -1 18210.9 713.814 20
1 -7 -3 16972.4 577.402 20
3 -7 -1 18080.4 357.241 9
-7 3 -1 18375.3 291.78 6
-1 7 -3 14366.9 591.612 20
-3 -1 7 18679.6 390.816 4
-3 7 -1 13645.8 657.282 21
-1 7 3 18022.6 305.624 7
1 -7 -3 19036.2 376.584 5
3 -1 -7 18728.2 334.032 8
1 3 -7 15765.2 417.483 23
3 -7 3 17671.9 396.353 9
-3 -7 -3 16538.1 391.742 15
-7 -3 3 17741.4 324.79 10
-3 -3 -7 16712.2 324.445 8
-3 -7 -3 17936.4 364.884 17
-3 -7 -3 16772.3 350.275 19
3 -3 -7 16615.8 338.647 8
-3 -7 -3 16784.4 350.143 18
-3 3 7 18438.8 695.02 1
3 -7 -3 16702 307.794 18
3 -7 3 10714 547.96 1
-7 -3 -3 16057.2 346.039 15
-3 3 -7 16550.8 266.102 8
-3 7 -3 15770.2 324.461 6
-3 -7 3 16753 396.994 15
-7 -3 -3 16020.6 262.932 26
-3 -3 7 16641.9 377.674 4
3 -3 7 15064.7 635.847 1
-3 -3 -7 16323.4 359.628 15
-3 7 3 16424 330.967 7
3 -3 -7 16523.1 348.26 5
-3 -3 7 18406.8 474.354 22
-7 -3 -3 16536.9 266.649 19
7 -3 3 16563.5 331.75 9
7 -3 3 16987.4 627.028 22
-7 3 3 16508.8 308.777 7
-3 7 3 12884.5 600.41 21
3 3 7 19277.3 667.533 23
-3 3 -7 15926.5 332.098 6
7 -3 -3 11430.2 565.322 1
3 -3 -7 16758.7 662.552 1
3 -3 7 16853 456.863 4
-3 3 7 16079.9 353.602 10
-7 3 3 16674.4 309.819 13
-7 -3 3 16749.4 318.64 13
-7 3 -3 16454.7 318.69 6
3 7 3 18453.8 704.747 1
-7 -3 -3 20659.8 388.933 12
-3 -7 3 16006.6 341.309 19
-3 3 -7 17823 335.52 2
3 3 -7 17829 346.404 2
-3 -7 3 16682.9 300.855 12
-3 -7 -3 17479.3 669.064 1
-7 3 3 14246.1 484.019 23
-7 -3 3 16405 267.106 26
7 3 -3 16267.5 282.638 25
3 -3 7 16836.9 251.612 25
-7 3 3 16514.6 374.853 10
3 -7 -3 15636.6 374.701 5
3 -3 7 18266 482.128 22
7 -3 3 16649.3 374.529 25
3 -7 3 15573.8 270.389 17
3 -7 -3 16567.2 335.658 9
-7 -3 3 17224.8 359.633 19
3 -7 -3 16176.2 329.377 3
-7 -3 -3 14766.6 299.412 11
-3 -3 7 17567.1 364.033 10
-7 -3 3 13339.3 549.665 22
-3 3 7 9085.67 224.03 23
3 7 -3 14317.8 467.513 20
-7 3 -3 20671.8 370.2 13
7 3 3 14401.8 597.775 1
3 -7 -3 16477.7 333.504 15
-7 3 -3 12526.7 599.184 21
-3 3 -7 17374.8 341.401 11
7 3 -3 18470 660.649 21
-3 -3 -7 18745.1 501.648 21
7 -3 -3 16915.4 347.785 5
-3 -7 3 15689.9 327.56 3
-3 -3 -7 16933.9 645.556 20
7 -3 3 12281.5 627.51 20
-7 -3 3 16170.8 342.941 12
-3 -3 7 15347.6 324.325 16
-3 3 7 16315.7 381.039 4
3 -7 -3 14667.8 604.853 20
3 -7 3 17057.6 338.903 3
-7 -3 -3 20436 371.601 13
-3 -7 -3 15952.2 326.305 3
-3 3 -7 16366.2 610.816 23
-3 -3 -7 14899.3 326.72 2
-3 -3 7 20006.9 299.31 19
3 -3 -7 15304.1 331.893 2
-5 -7 1 15138.3 294.868 12
-1 5 7 15043.4 338.209 4
-7 5 -1 13323.5 542.974 22
-5 -7 1 14489.5 355.811 19
-5 -7 -1 14368.4 349.231 19
5 -1 -7 14771.1 293.288 2
-7 5 -1 15354.3 318.621 6
-1 -7 5 14670 293.551 3
-5 1 -7 15005.3 371.114 11
-1 5 7 15630.5 325.702 24
5 1 -7 15434.6 337.928 8
-5 -7 -1 14508.9 273.872 16
-5 -1 -7 14856.5 378.739 15
1 -5 7 12149.5 493.891 1
-1 -5 7 14484 348.458 16
1 -7 -5 14618 207.375 27
-7 -1 -5 14120 352.806 11
-5 -7 1 14514.6 362.954 15
-7 -5 1 14336.5 301.958 15
1 -7 -5 15262.2 346.942 15
-1 -7 -5 15190.4 371.824 15
-7 -5 -1 14513.5 335.992 15
-7 5 1 14960.1 331.079 7
-1 -5 -7 15035.4 336.803 15
-7 5 1 13029.2 574.26 23
-7 -1 5 19157.7 417.489 19
7 -5 1 15644 366.994 5
-7 -1 -5 15268.1 376.472 15
-7 1 5 14911 273.742 7
7 -1 5 16053.9 378.924 25
-1 -7 -5 13720.3 347.205 14
5 1 7 13755.7 326.432 4
1 5 -7 15827.8 379.895 2
-1 5 -7 13181.3 525.004 23
7 1 5 15811.8 348.27 24
7 5 -1 13134.4 568.198 23
1 -5 -7 14531.8 340.739 14
-1 -5 -7 14595.3 354.404 14
7 5 -1 16005 643.773 22
-7 1 -5 19820.4 417.559 13
-7 -5 -1 15965.4 297.445 13
-1 7 5 14808.3 334.276 7
-5 1 7 13564.8 292.191 7
1 7 5 14184.1 304.251 7
5 -1 -7 14998.6 321.117 8
-5 -1 7 13802.7 254.677 7
-1 -7 5 15693.3 397.262 4
-7 5 -1 15620.5 290.733 13
1 -5 7 16671.9 475.874 4
7 1 -5 13850.1 275.737 8
-7 5 1 15940.6 282.767 13
-7 -5 1 15379.4 283.851 13
-7 -5 -1 14275.5 316.229 19
-5 -1 7 14645.6 367.829 4
-7 -5 1 14867.2 276.714 26
-5 -1 7 15835.1 173.039 26
-5 -7 1 14314.6 342.797 3
-5 -7 -1 14776 372.794 15
5 1 7 13782.4 351.672 24
-5 -7 -1 15659.5 284.102 12
-1 7 -5 14963.7 296.723 6
-1 5 -7 15067.7 299.554 6
-7 -5 1 15122.2 340.306 12
1 -7 5 15218 297.344 3
-7 1 5 14406.6 290.084 12
-5 7 1 15263.5 336.308 7
5 -7 -1 15104.2 381.571 9
-7 -1 5 14457.1 327.609 12
1 -7 5 9821.38 447.34 1
-5 -1 -7 14695.7 371.625 11
1 5 7 15941.7 367.144 24
-1 -5 7 15399.1 410.034 4
-5 7 1 15095.3 329.135 6
-7 -5 -1 15820.8 341.199 12
-1 -5 -7 13128.5 351.265 8
1 5 7 14084.7 587.655 23
5 -7 1 15160.8 401.488 5
-5 -7 1 14714.6 330.287 16
-7 1 5 16432.2 356.339 19
-1 -7 -5 14578.8 291.209 3
-1 5 7 10260.7 438.645 23
-5 1 7 14471 367.48 10
-5 -1 7 14940.2 367.382 10
5 -7 -1 14158.5 391.334 5
5 -1 7 13840.7 385.041 4
-7 -1 5 15024.6 369.691 10
1 -7 5 14822.5 208.553 27
7 -1 -5 14062.8 257.391 8
-1 5 7 14399.1 305.366 10
1 -7 -5 14873.5 294.353 3
7 -5 -1 15292.5 376.586 5
-1 -7 -5 14946.9 310.986 5
-1 -7 -5 12833.3 432.969 20
-7 5 1 14355.5 289.532 6
7 -5 1 13783.8 362.47 9
5 -1 7 16378.4 613.908 22
5 7 1 15119 588.189 22
1 5 7 13793.8 284.164 10
-5 -1 7 16434.7 615.771 22
-1 -5 7 15694.9 341.461 10
1 -7 -5 14461.4 342.626 5
-5 7 1 15637 573.351 22
-5 1 -7 14566.9 281.04 2
-1 -5 -7 12515.7 482.479 21
-7 1 -5 10736 484.674 21
1 -5 -7 12278.3 559.723 21
1 -5 -7 12906.6 342.394 8
-1 -7 5 14461.1 376.057 9
1 -5 7 14887.6 334.63 9
1 -7 5 15590.7 390.363 9
-1 7 5 11815.7 548.28 21
-1 -5 -7 14272.9 271.788 5
-1 -5 -7 13355.5 633.186 20
-1 -7 5 15012.1 285.747 19
7 -1 5 11588.9 615.124 20
1 -5 -7 14238.9 316.83 5
-5 -1 -7 15851.8 637.25 20
1 7 -5 14171.6 622.262 20
5 1 -7 15717 294.168 2
7 -1 -5 14873.8 339.736 5
-7 1 -5 12589.1 561.417 20
-7 -1 -5 12663.7 485.112 20
1 -7 -5 12949.1 513.709 20
-5 -1 7 15686.1 305.158 19
-5 7 -1 15387.8 334.003 7
-5 -1 -7 14099.8 288.74 2
3 -7 -5 12146.5 338.821 8
-3 -5 7 14275.8 273.177 19
-7 -5 -3 12630.8 281.044 19
-7 -3 5 13485.3 233.104 26
-5 -7 -3 13475 329.321 19
7 -3 -5 13360 261.841 8
-3 -7 -5 14044.7 322.536 19
-7 -3 5 13396.8 335.16 10
5 -7 -3 13793.7 269.518 18
-3 -7 -5 13914.2 346.394 18
-5 -7 -3 12866.3 303.438 17
-5 -3 7 13278.5 346.999 4
5 3 7 14888.3 386.963 24
-3 -5 7 12848.9 352.398 16
-5 -7 3 13238.7 358.963 16
-5 -7 3 13207.9 353.786 19
-3 -7 5 13389.6 390.483 16
5 3 -7 14115.6 353.284 8
3 5 -7 15306.6 371.982 2
-3 -7 -5 13244.1 377.694 15
-3 -7 5 13370.7 310.11 19
-7 -5 -3 13227.3 358.294 15
5 -7 -3 12517.8 342.353 9
-3 -5 -7 13195.7 360.062 15
-3 -7 5 13541.4 307.898 4
-7 5 3 13769.7 331.107 7
-7 -3 -5 13106.4 367.327 15
-5 -3 -7 13628.1 380.624 15
-5 7 3 13628.9 336.052 7
-3 7 5 13435.8 337.881 7
-7 3 5 13658.4 311.291 7
5 -3 -7 13293.1 322.511 8
-3 5 -7 13395.6 324.488 6
-7 -5 3 13434.1 356.977 19
-7 -3 -5 13312.7 274.332 14
3 -5 -7 13624.4 317.649 14
-3 -5 -7 12935.2 349.574 14
-7 3 -5 17172.9 384.514 13
-7 -3 -5 16725.2 387.261 13
-5 3 7 12755.8 322.946 7
-7 5 -3 13289.6 294.671 13
-7 -5 -3 14027.1 305.572 13
7 -3 5 13538 341.581 25
-5 3 -7 12651.6 341.427 6
-5 -7 -3 13234.8 328.098 3
-3 -5 -7 13219.6 346.503 8
5 3 -7 14732.1 309.147 2
-7 5 3 13513.3 273.501 13
-7 -5 3 13458.1 283.685 13
-5 -7 -3 14549.8 287.882 12
-3 -7 5 13114.3 293.512 3
7 3 5 14650.5 372.817 24
-3 -7 -5 13084.3 288.108 3
-7 5 -3 13961.8 334.534 6
-7 5 3 10218.9 465.882 23
-3 7 -5 13500.8 323.399 6
-5 3 -7 13507.9 287.171 2
-7 5 3 13525.4 269.679 6
-7 3 -5 13135.1 330.906 6
-5 7 -3 13008.4 332.791 6
-7 -5 3 13395.9 345.287 12
5 -3 7 13477.2 282.874 25
-7 -3 5 15950.6 395.867 19
-5 -7 3 13364.6 317.158 12
-7 -3 5 13414.3 350.708 12
-5 3 7 12472.8 348.255 10
-7 -3 -5 12580.6 334.407 11
-3 -5 7 14475.9 382.113 4
-5 7 3 13614.1 319.375 6
-7 -5 -3 15278.4 351.572 12
-5 3 -7 13966.8 359.811 11
3 -7 -5 12925.3 284.08 9
-7 3 5 12875.2 367.014 10
3 -5 -7 12400.5 340.731 8
-5 -7 3 13252 348.714 15
3 5 7 14038.1 375.262 24
-5 -3 7 16525.6 353.498 19
-3 5 7 13234.5 320.946 10
-5 -3 7 14120.9 348.26 10
-3 5 -7 14214.8 317.667 11
-3 7 5 11946 232.205 24
-7 -3 -5 13382.3 231.043 26
-7 -3 5 11359.4 498.745 22
5 -7 -3 12533.7 377.914 5
-5 -3 7 12099.8 448.172 22
5 -3 7 13947.1 485.291 22
-5 -3 -7 13785.6 278.646 8
3 5 7 11551.7 275.737 10
7 -5 -3 13295.7 372.037 5
3 -7 -5 12349 355.274 5
-3 5 -7 14625.5 350.489 2
3 -5 7 13951.7 325.515 9
-7 -3 5 12950.5 293.834 4
3 -7 5 14273.6 301.381 3
3 -7 5 14537.4 385.164 9
3 -5 -7 12593.2 338.564 5
7 -3 -5 13474.5 358.208 5
3 -7 -5 13641.9 296.527 3
5 -7 3 13876.9 383.992 9
7 -3 5 13903.6 292.078 9
5 -3 -7 13184.3 356.861 5
7 -5 3 13655.1 364.367 9
-3 -7 -5 12853.7 349.834 14
-3 -5 7 14077.2 318.544 10
-5 -5 7 11563.6 326.086 4
-7 -5 5 11763 356.887 19
7 -5 -5 10909.6 270.025 8
5 -5 -7 10863.8 319.903 8
-5 -7 -5 11474.9 325.066 18
-5 -7 -5 11223.6 282.843 17
-5 -5 7 13189.9 339.971 19
-5 -7 -5 10279.7 367.813 15
-7 -5 -5 10998.3 369.988 15
-5 -5 -7 10807.1 371.735 15
-5 -5 -7 10829.8 331.837 14
-5 5 7 10445.5 328.86 10
-7 5 5 11080.2 326.735 7
-5 7 5 11306.6 342.599 7
-7 -5 -5 10564.9 287.389 14
-5 5 -7 11574.5 336.695 11
5 5 7 11308.8 361.965 24
-7 5 5 10296.7 340.643 10
-5 -7 5 11489.7 341.325 12
-5 5 -7 10705.9 329.616 6
-7 -5 -5 10621.9 232.13 19
-5 -7 -5 11081.2 289.451 19
-5 7 -5 11159.4 332.962 6
5 -5 7 11601.7 302.735 9
-5 7 5 10422.7 289.952 10
5 -7 -5 9997.69 304.22 9
-5 5 -7 10874.1 286.384 2
5 5 -7 11578.4 311.831 2
-7 5 5 10864.5 243.089 6
7 5 5 11191.6 365.536 24
-5 -7 5 10993.9 332.632 19
-5 -5 7 11675.6 299.12 10
5 -7 -5 11611.3 287.132 18
-7 -5 5 10669.1 269.194 10
-5 -5 -7 11792.4 303.523 18
7 -5 -5 11099.8 375.771 5
5 -7 5 11639.6 359.638 9
-5 7 -5 10508.1 283.819 2
5 7 -5 11361.6 318.331 2
7 -5 5 11326.8 323.253 9
7 1 -7 10852.4 301.83 8
1 -7 -7 9292.79 345.833 8
7 -1 -7 11322.6 298.465 8
-7 -7 -1 10963.8 335.368 19
-7 1 -7 10823.5 365.621 11
-7 -7 1 10840.2 324.336 15
1 -7 -7 10829.4 300.958 15
-7 -7 -1 10927.6 348.136 15
-7 7 1 11036.2 332.48 7
-7 -1 7 10693.1 359.74 10
1 -7 -7 10416.1 333.244 14
-1 -7 7 11400.4 420.451 4
1 -7 7 10419 446.227 4
7 -1 -7 11198.1 354.385 5
-1 7 -7 11832 293.853 6
1 7 7 10545.4 320.256 24
-7 1 7 10840.8 265.387 7
-7 -7 -1 11105.7 303.148 12
-7 -7 1 10634.4 305.091 12
-7 7 -1 11250.1 326.933 6
-1 -7 -7 10525.1 344.638 14
-7 1 7 10615.3 280.285 12
-7 -1 7 10652.3 317.872 12
-7 7 1 10784 305.841 6
-7 -1 7 11075.5 181.875 26
-7 -1 -7 10584.9 172.613 26
7 -1 7 12035.8 339.898 25
7 -7 -1 10748.1 382.353 5
-7 7 -1 11236.6 332.315 7
-1 7 7 10634.7 279.429 24
-7 -1 7 12561.5 334.272 19
-7 -1 7 10962.2 350.667 4
-1 7 7 10798.5 337.169 7
-1 -7 -7 10730.7 276.078 5
1 -7 7 9821.39 284.736 10
1 -7 -7 10391.7 315.824 5
1 -7 7 11382.8 361.258 9
1 7 -7 10770.3 363.801 2
-1 -7 -7 10996.6 340.028 15
7 -7 1 11006.8 378.768 9
7 -3 -7 10284.8 287.642 8
-3 -7 7 10380.4 269.297 19
-7 -7 -3 9824.24 304.088 19
-7 -7 3 10250.5 359.164 19
-7 -3 7 9961.28 318.561 4
-3 -7 -7 10500 335.64 18
-7 3 -7 10772 367.13 11
3 -7 -7 9268.04 338.379 8
7 -3 7 9907.16 290.477 25
-7 -7 3 9024.65 285.924 15
-3 -7 -7 9979.68 265.367 19
7 3 -7 10148.9 319.29 8
-7 -3 -7 10159.5 295.837 14
-3 7 7 10170.2 343.341 7
-3 7 -7 9731.35 327.357 2
-3 -7 7 10763.1 345.326 4
-3 7 -7 10491 314.948 6
-7 -7 -3 10004.4 294.643 12
-7 7 3 10369.1 294.005 6
-7 -7 3 10369.6 327.751 12
3 -7 -7 10152.1 164.973 27
-7 -3 7 10029.1 344.164 12
-3 -7 -7 10307.7 364.06 15
7 3 7 10324.7 341.404 24
3 7 7 9886.74 334.949 24
-7 3 7 9754.23 294.205 7
-3 -7 7 10085 370.502 16
-7 3 7 9042 349.516 10
-7 -3 7 10032 336.654 10
-3 7 7 10255.3 278.314 10
7 -7 -3 9595.62 378.94 5
3 -7 -7 10090.8 233.747 3
3 7 -7 10261.9 352.633 2
7 -7 3 10291.4 364.623 9
3 -7 -7 9809.9 347.572 5
3 -7 7 10428.9 347.961 9
-7 -7 -3 10072.4 362.149 15
7 -3 -7 9872.25 354.165 5
7 -7 -3 9041.21 341.96 9
-7 -5 7 10826.8 374.867 19
-7 -5 7 7953.81 272.918 10
7 -5 -7 8478.09 287.739 8
-7 -5 7 8719.79 275.302 4
-5 7 -7 7777.25 275.663 2
-5 -7 -7 8301.92 245.902 17
-5 -7 -7 8400.93 297.94 18
-5 -7 7 8832.55 278.322 4
-7 -7 -5 8295.95 256.677 19
5 -7 -7 7336.74 308.182 8
-5 7 -7 8532.93 303.782 11
7 5 7 8182.31 323.713 24
-7 5 -7 7036.36 208.745 2
-5 -7 -7 7785.76 347.43 15
-7 5 7 8169.75 304.729 7
-5 -7 -7 8016.91 324.959 14
-5 7 7 8035.03 316.757 7
-7 -5 -7 8177.17 292.795 14
7 -7 -5 7076.72 300.027 9
-7 5 7 7370.52 318.11 10
-7 -7 5 7790.32 219.531 13
-5 7 -7 8395.7 317.569 6
-5 -7 7 8410.44 355.512 16
-7 -7 5 8354.42 327.813 12
-5 -7 7 8587.58 343.253 12
-5 -7 -7 7953.03 225.711 19
-7 7 5 8049.45 257.539 6
-7 5 -7 8651.58 341.987 11
5 7 -7 8347.04 307.544 2
5 -7 7 8611.39 319.746 9
-5 7 7 7394.63 275.039 10
-7 7 -5 6915.86 207.813 2
7 -7 -5 7666.32 357.47 5
7 -5 -7 7556.47 340.956 5
5 -7 -7 8221.63 232.532 3
7 -5 7 8387.45 268.116 9
-5 -7 7 9075.77 302.901 19
7 -7 5 8439.56 326.294 9
-7 -7 5 8878.61 345.29 19
5 -7 -7 7446.67 250.874 9
7 -7 -7 5556.82 258.873 9
-7 -7 7 7834.41 343.502 19
-7 -7 -7 6005.33 234.717 18
-7 -7 -7 6011.18 332.327 15
-7 7 -7 6452.09 299.653 11
-7 7 -7 6359.28 305.583 6
-7 -7 7 5889.04 216.373 13
7 7 7 5901.56 287.387 24
-7 7 -7 4825.06 191.275 2
-7 -7 7 6514 319.473 12
-7 7 7 6146.95 223.288 6
7 -7 -7 6677.41 235.359 18
7 -7 -7 5531 327.517 5
7 -7 7 6285.27 278.67 9
0 -8 0 41409.1 566.602 17
8 0 0 42138 615.684 25
0 0 -8 40555.5 506.462 8
0 -8 0 30128.8 900.856 1
0 0 8 44617.8 1045.22 1
0 -8 0 42862.6 689.696 15
0 0 8 40580.6 628.793 4
0 0 -8 38956.9 525.317 2
-8 0 0 36247.3 961.176 23
-8 0 0 42161.1 534.544 13
0 -8 0 39981.2 535.831 9
-8 0 0 42630.3 527.35 12
0 -8 0 40462.5 409.842 27
0 -8 0 40542.1 577.455 3
0 0 8 38896.7 584.91 10
-8 0 0 29490.6 828.104 21
0 0 -8 49546.4 1239.95 21
0 -8 0 30176.5 873.515 20
0 8 0 28652.5 837.819 21
8 0 0 35247.9 893.426 20
-8 0 0 54320.2 597.301 19
-8 2 0 4279.66 156.521 12
-2 -8 0 4003.48 190.393 19
0 -8 2 4093.34 177.492 19
0 -2 -8 4073.5 167.305 8
-8 2 0 3663.27 309.458 23
8 0 2 4141.55 200.954 25
8 0 -2 2832.87 253.612 1
2 -8 0 4312.97 177.568 17
0 -2 -8 4452.18 345.202 21
0 2 -8 4179.44 163.555 8
-2 -8 0 2735.28 252.421 1
-2 0 8 3847.04 192.991 4
-8 2 0 3902.22 149.024 7
-2 0 -8 3886.81 164.928 2
8 0 2 2535.8 250.803 20
-2 8 0 3910.35 146.049 7
-8 -2 0 4697.83 185.257 19
-8 0 -2 4500.52 185.211 13
0 -8 -2 4241.06 209.719 15
0 -2 -8 3989.68 145.52 15
-8 0 -2 3816.91 153.189 15
0 8 2 3975.95 134.873 7
-8 0 2 4339.97 177.084 19
-8 0 -2 4380.22 136.566 19
0 -2 8 4271.78 302.281 1
-8 2 0 4093.98 166.197 13
-8 -2 0 4038.87 167.198 13
0 2 -8 3990.08 173.649 2
-8 0 2 3982.46 166.684 13
0 -8 -2 3199.36 322.729 1
-8 0 -2 4400.83 181.551 12
0 8 2 3238.01 306.718 1
-8 -2 0 4169.48 174.307 12
-8 0 2 3957.4 160.021 12
-2 0 8 4525.25 309.493 1
0 8 -2 3916.7 150.85 6
0 8 2 2683.75 243.82 21
0 -8 2 3995.79 174.376 17
0 -8 -2 3877.03 123.927 27
-2 -8 0 4046.55 185.142 3
8 2 0 4261.22 190.72 25
-8 0 -2 3705.6 166.763 11
8 0 2 3371.51 120.212 24
2 -8 0 2807.19 302.412 20
8 -2 0 3533.85 183.454 25
0 -8 -2 4101.32 188.355 5
2 0 -8 3864.72 165.235 2
0 -8 2 3738.11 123.965 27
2 0 8 3786.23 189.065 4
0 -2 -8 3600.15 168.559 2
-2 8 0 3907.29 166.98 6
0 -8 2 3874.75 178.32 3
0 -8 -2 4061.88 179.424 3
0 -2 8 3923.86 207.728 4
2 -8 0 2746.84 308.242 1
0 -8 -2 3834.8 169.732 18
0 2 8 3796.11 179.643 10
0 2 8 4071 184.036 4
0 8 -2 2388.67 279.848 21
0 -2 8 4034.81 192.694 10
8 2 0 4336.57 316.478 23
8 0 -2 3434.04 330.042 21
2 8 0 2655.97 229.402 21
-2 8 0 2203.25 261.963 21
-2 -8 0 3673.06 155.244 9
-8 2 0 2925.53 294.703 21
-8 0 -2 2760.31 237.371 21
0 -8 2 3891.13 188.704 9
-2 -8 0 1487.47 148.011 20
0 2 8 4108.75 345.721 1
2 0 8 4181.03 348.56 1
0 -8 -2 3695.13 145.61 9
0 -8 2 2200.19 233.481 1
0 -8 2 2695.91 308.814 20
2 -8 0 4053.45 183.324 3
0 2 8 4047.88 232.855 23
2 -8 0 3975 186.766 9
-2 0 -8 4101.7 149.553 8
8 2 0 2581.86 231.595 1
0 -8 -2 2692.54 246.77 20
8 -2 0 3833.25 343.231 20
8 0 -2 3373.18 287.009 20
-8 -2 -2 41292 481.991 19
-8 -2 -2 32433.1 447.029 11
2 -8 -2 34933.2 381.546 27
2 8 -2 34950.5 388.744 6
-2 -2 -8 36756.7 487.76 8
2 -2 -8 35224.4 524.241 2
2 -2 -8 35464.3 520.778 8
-2 2 8 35194.2 579.146 4
2 -8 2 35579.7 388.72 27
2 -8 2 35073.7 486.26 17
-2 -8 -2 36607.6 572.347 17
-2 2 -8 37110.8 461.608 8
2 8 2 35131.7 970.521 1
-2 -8 2 37739 657.691 15
2 -8 -2 37107.1 608.974 15
-2 8 -2 36748.8 442.064 7
2 2 8 33998.9 508.655 4
-2 -8 2 36342.9 567.468 19
8 2 2 23312.4 743.034 1
8 -2 -2 25025.3 837.006 1
-8 2 2 36155.6 443.491 7
8 2 -2 32478.1 877.696 21
-2 -8 -2 31726.5 907.375 1
-8 -2 -2 34263.1 478.719 15
-2 2 -8 37134.6 525.349 2
-2 -2 -8 34009.7 519.035 2
-2 8 2 35212.3 461.661 7
-2 -8 -2 35471.9 622.933 15
-8 -2 -2 40002 556.637 13
2 -2 8 37142.5 680.15 4
-8 2 -2 40127.7 548.065 13
-2 2 8 38896.4 999.655 1
2 -2 8 36926.7 992.904 1
2 2 -8 37609 535.41 2
-2 -2 -8 35420.3 512.812 15
-8 2 2 35539.1 492.963 13
-8 -2 2 35700.9 505.739 13
-8 2 -2 34135.8 428.464 6
2 -8 2 22565.2 798.715 1
-8 -2 -2 39417.3 564.997 12
-8 2 2 35625.5 437.716 12
-8 -2 2 35273 520.771 12
-2 -2 8 42939.1 789.236 1
-8 2 2 31395.6 790.117 23
-2 -8 -2 35427.3 544.419 3
-2 2 -8 37519.7 503.224 11
-2 8 -2 34224 483.645 6
-8 -2 2 42318.8 597.789 19
-2 -8 2 35575.7 551.411 3
8 2 -2 35064.2 512.197 25
2 -8 -2 34326.5 487.43 18
2 -8 -2 34798.1 595.239 5
-2 2 -8 35713 855.956 23
2 2 8 40756 886.508 23
8 2 2 34727 474.172 24
-2 2 8 34317.6 551.799 10
-2 -2 8 35510.1 573.563 10
8 -2 2 27019.5 906.163 20
-2 -8 2 33727.3 537.33 9
8 -2 -2 38240.9 498.242 5
-2 8 2 25737 828.387 21
-8 2 -2 25767.4 826.516 21
-2 -2 -8 42998.9 981.763 21
2 -8 2 36401.5 554.006 3
2 -8 -2 35242 543.261 3
-2 -2 -8 37117.2 1063.36 20
2 -8 2 28737.7 1000.52 20
2 -8 -2 29076 864.182 20
-2 -8 2 20181.8 553.119 1
2 -8 -2 34887.4 512.246 9
2 -2 -8 41228.7 1005.41 1
-4 0 -8 31843.5 478.745 2
-8 -4 0 31057.4 493.119 19
0 -4 -8 29426.2 535.052 8
-8 -4 0 30522.4 411.225 26
0 -8 4 32730.2 469.995 19
-4 0 -8 32844.6 396.856 8
-8 4 0 31686.2 486.6 7
-8 0 4 34721 534.552 19
0 -8 4 30754.5 351.442 27
-8 0 -4 30327.4 529.441 15
0 -8 -4 31108.9 351.856 27
-4 -8 0 31958.8 595.042 15
0 -8 -4 32117.6 581.16 15
-8 -4 0 30222.9 433.456 15
-4 8 0 32294 483.116 7
4 0 -8 31919.1 508.628 8
0 -4 -8 32230.1 457.505 15
-4 0 -8 32672.7 568.96 15
-4 -8 0 32118 566.254 19
0 8 4 30809.6 443.023 7
-8 0 4 31264.1 561.105 10
-8 0 -4 38582.7 600.534 13
0 -8 -4 30614.6 509.952 18
-8 -4 0 33697.1 482.246 13
-8 4 0 31488.3 424.169 6
-4 -8 0 31586.9 369.094 12
4 0 8 28806.1 528.623 4
0 -8 4 30871.8 493.392 3
-4 -8 0 31466.3 545.652 3
0 4 8 31793.9 508.809 4
-8 0 4 31358.1 474.764 12
0 8 -4 30012.6 418.428 6
0 4 8 32652.2 504.874 24
0 -4 8 29307.2 440.212 16
-4 0 -8 32063.1 553.064 11
-8 0 -4 31203.9 537.408 11
0 4 8 27444.9 685.098 23
0 -8 -4 31680.2 496.776 3
8 -4 0 32577.1 514.647 5
0 4 -8 32999.7 548.179 2
0 -8 -4 30973.9 525.941 5
4 -8 0 30043.5 602.728 5
0 -4 8 31995.8 566.114 10
0 -4 -8 30577 852.444 21
0 -4 -8 30635.2 441.155 5
4 -8 0 32034.6 570.272 9
8 0 -4 32872.4 468.913 5
0 -8 -4 26799.7 713.169 20
8 -4 2 3151.74 178.679 9
8 2 -4 3357.71 143.055 5
4 -8 -2 3328.68 147.541 18
-8 -4 -2 3392.21 156.957 19
-4 -2 -8 3337.62 162.454 2
4 -2 -8 3264.61 162.078 2
-2 -4 -8 3306.75 172.717 8
-8 -2 4 3486.86 130.114 26
-4 -2 -8 3696.38 150.79 8
-2 4 8 3544.95 189.861 4
-4 -8 2 3356.52 189.624 19
-4 2 8 2737.89 274.411 1
2 -4 -8 3199.78 174.052 8
-4 2 8 3306.88 197.151 4
-4 -8 -2 3513.68 193.762 19
-8 -4 2 3418.95 136.723 26
2 4 8 4002.27 197.386 24
4 -2 -8 3240.48 164.591 8
2 4 8 3219.81 144.733 4
-4 2 -8 3458.95 120.459 8
2 -8 -4 3255.58 163.282 18
2 -4 8 2838.46 273.493 1
-4 -8 -2 3228.23 174.564 17
-2 4 -8 3506.46 152.368 11
-4 -2 8 3640.67 199.467 4
-2 -4 8 3247.61 163.133 16
4 2 -8 3422.37 179.345 8
-4 -8 -2 3410.99 134.435 16
-2 4 -8 3575.01 149.684 8
-4 -8 2 3397.24 202.298 15
2 -8 -4 3531.2 185.409 15
-2 -8 -4 3696.58 193.899 19
-4 8 -2 3295.01 163.162 7
2 -8 -4 3206.41 114.612 27
-2 -8 -4 3422.07 198.647 15
-4 -8 2 3324.62 185.847 16
8 2 4 3217.48 164.692 24
-8 -4 -2 3307.11 169.056 15
-2 -4 -8 3332.01 171.211 15
-8 2 4 3476.17 145.731 7
-4 8 2 3514.01 169.968 7
-8 -2 -4 3525.4 185.906 15
-4 -2 -8 3420.15 187.192 15
2 -8 4 1924.8 234.931 1
-2 8 4 3254.92 163.967 7
-4 2 -8 3380.66 156.8 2
4 2 -8 3796.29 169.806 2
-4 -2 -8 3455.02 313.449 20
-2 -8 4 3169.69 156.214 4
-8 2 -4 4177.78 197.957 13
-8 -2 -4 4150.25 199.893 13
2 -4 8 3606.54 239.714 4
4 -2 8 3336.7 217.25 4
-8 -4 -2 3278.21 161.653 13
-2 4 -8 3440.24 168.744 6
4 -8 2 3290.23 140.149 17
-8 -4 2 3334.53 155.871 13
-8 -2 -4 3233.68 124.335 26
-8 -2 4 3269.6 166.184 13
-8 4 -2 3467.66 163.243 6
-8 -4 -2 3863.11 186.599 12
8 4 -2 3833.07 159.672 25
-4 -8 2 3330.51 179.503 3
-8 -2 -4 3223.29 168.594 11
-4 -8 -2 3410.54 178.496 3
-8 2 4 3450.38 141.142 12
-2 8 -4 3363.54 164.688 6
-4 -8 2 3409.86 139.773 12
-8 -2 4 3395.16 173.505 12
-8 4 2 3225.21 131.362 6
-2 4 -8 3611.26 180.813 2
-4 8 -2 3542.24 180.145 6
2 4 -8 3778.16 188.806 2
-2 -8 -4 3341.02 164.581 3
-8 -4 -2 2943.34 132.147 11
-8 2 4 3487.84 194.913 10
-4 2 -8 3568.77 184.869 11
4 2 8 3609.88 196.472 24
-8 -2 4 3223.72 174.826 10
8 -2 4 3623.6 195.622 25
-2 -4 8 3768.07 215.54 4
-8 2 -4 3258.68 165.631 6
-4 2 8 3326.61 187.52 10
-8 4 2 2674.94 253.51 23
-4 -2 8 3486.12 188.283 10
-2 4 8 3396.09 173.594 10
2 -8 -4 3328.67 191.289 5
-2 -4 8 3566.2 182.921 10
4 -2 8 3393.48 262.108 22
8 -4 -2 3460.52 180.936 5
-4 -2 8 3324.68 262.891 22
2 4 8 3157.62 162.876 10
2 -8 4 3461.45 168.403 3
2 -4 8 3341.28 148.641 9
2 -8 -4 3382.12 166.763 3
-8 2 -4 2180.33 245.407 21
4 2 8 3263.77 157.26 4
-8 2 4 3411.33 165.592 13
-8 4 2 3427.62 165.862 7
2 -8 4 3546.97 205.436 9
8 -2 -4 3420.52 171.332 5
-2 -4 -8 2745.72 293.449 20
-8 -4 -2 3250.23 133.691 26
2 -8 -4 3218.97 145.624 9
2 -4 -8 3285.79 165.087 5
4 -8 -2 3400.23 182.242 9
-4 -2 8 3886.77 142.952 19
8 -2 4 3628.95 155.515 9
-8 -2 4 4358.74 224.095 19
-8 -4 -4 26031.6 372.824 19
-4 -4 -8 25254 474.423 8
-4 -8 4 25517.1 506.274 19
4 -4 -8 24783.2 490.008 8
-8 -4 4 29829.9 586.047 19
4 -8 -4 25007.5 436.971 18
-4 -4 8 32320.3 462.477 19
-4 -8 -4 26111.1 495.591 17
-4 -4 8 25941 545.133 4
-4 -8 -4 24701.3 563.609 15
-4 -4 -8 24370.2 526.981 15
-8 4 4 25659.8 459.193 7
-4 8 4 26313.6 505.975 7
-8 -4 4 25353.3 364.264 26
4 -4 -8 26640.3 444.135 14
-4 -8 -4 25356.8 484.416 19
-4 -4 -8 25253.5 517.004 14
-8 4 -4 28332.6 503.093 13
-8 -4 -4 28308.9 508.591 13
-4 4 8 23658.5 491.109 7
-8 -4 -4 25539.6 537.463 15
-4 4 -8 24701.2 495.613 6
4 -4 8 22732.4 661.574 4
4 -4 8 22634.9 309.528 25
-8 4 -4 25939.1 486.917 6
-8 4 4 24904.2 440.212 13
-8 -4 4 25630.1 460.356 13
-4 -8 4 24761.7 477.12 3
-4 -8 -4 24726.1 472.352 3
-4 4 -8 26855.3 478.791 2
4 4 -8 28060.8 505.229 2
-4 8 -4 24978.5 482.343 6
-8 -4 -4 24536.8 356.183 26
-8 -4 4 25000.8 512.49 12
-4 -8 4 25752.7 455.5 12
-4 4 -8 27882.4 501.791 11
8 -4 4 23286.7 479.323 25
8 4 4 26438.5 526.164 24
-4 4 8 24787.1 508.853 10
-4 -4 8 27156.3 515.063 10
4 -8 -4 23240.8 555.582 5
8 -4 -4 26035.5 544.89 5
-4 -8 -4 25101.2 502.899 18
4 -8 4 26574.4 566.171 9
4 -8 4 25808.1 478.462 3
4 -4 -8 25368.5 529.704 5
4 -8 -4 24921.2 473.999 3
8 -4 4 26337.9 495.777 9
4 -8 -4 24803.7 475.877 9
-8 -6 0 2730.52 179.664 19
-6 0 8 2441.94 183.835 4
0 -8 -6 2848.46 185.176 15
-6 0 -8 2811.23 137.873 2
6 0 -8 3244.73 149.764 2
0 -8 -6 2871.16 176.418 18
8 0 -6 2700.39 132.124 8
0 6 8 2862.47 162.076 24
-6 -8 0 2820.56 151.204 16
0 -6 8 2832.32 177.413 16
-8 -6 0 2618.11 156.572 15
-6 8 0 3049.94 180.633 7
0 -6 -8 3054.64 166.332 15
-8 0 -6 2827.19 193.649 15
6 0 -8 2949.67 166.564 8
-6 0 -8 2913.95 200.568 15
0 6 -8 2998.73 195.601 2
0 -6 -8 2679.13 175.001 14
0 -6 8 2864.23 229.572 4
6 0 8 2668.66 175.022 4
0 8 6 2897.36 168.385 7
-6 0 8 2716.97 139.102 7
8 0 6 3154.01 191.549 25
0 -8 6 2671.86 215.06 4
-8 6 0 2709.05 134.214 13
-8 -6 0 2492.32 131.412 13
0 6 -8 2909.41 146.182 6
0 8 -6 3075.49 149.463 6
-8 -6 0 3001.3 174.454 12
-6 -8 0 2672.05 141.091 12
-8 6 0 2807.16 162.234 6
-6 -8 0 2649.99 185.01 15
-8 0 6 2726.23 155.57 12
-6 8 0 2952.64 184.691 6
-6 0 -8 2941.56 192.559 11
0 -8 6 2868.98 143.32 3
0 -8 -6 2822.25 141.935 3
6 -8 0 2736.52 203.698 5
-8 0 6 2644.32 182.721 10
8 -6 0 2825.11 189.199 5
0 6 8 2763.74 142.99 10
-8 0 6 3134.87 187.793 19
0 -8 -6 2764.87 166.226 5
0 -6 8 2897.13 170.443 10
0 -8 6 2921.04 202.748 9
0 -6 -8 2723.98 148.181 5
8 0 -6 2997.48 173.245 5
8 -6 0 2817.55 197.87 9
-2 -6 -8 20416.7 519.929 8
2 -6 -8 19826.1 497.587 8
-2 -8 6 22970.9 403.182 19
-6 -8 2 22997.8 528.734 19
-8 -2 -6 22113.7 298.394 26
-6 2 8 21321 542.567 10
-6 -2 8 22831.7 521.339 4
8 -2 -6 24287.4 390.217 8
-2 -6 -8 23608.1 367.467 19
6 -2 -8 24306.1 474.031 8
-2 -8 -6 22686.8 498.98 18
2 -8 -6 22984.8 480.086 18
-6 8 2 22482.7 457.113 6
2 6 -8 24738.9 547.224 2
8 2 -6 21652.7 414.375 8
6 2 -8 24502.7 512.001 8
-6 -8 2 23129.6 495.188 16
-2 -6 8 22655.8 510.553 16
-6 2 -8 23774 533.437 11
-6 -8 2 21940.1 511.746 15
-6 8 -2 22954.8 478.612 7
-2 -8 -6 24367 483.936 19
-8 -6 2 20657.6 395.168 15
2 -8 6 23479.9 291.24 27
-6 2 -8 22902.8 391.785 2
-6 -8 -2 22200.2 538.837 15
6 2 -8 23650.9 410.284 2
-2 -8 -6 22470 533.126 15
-8 -6 -2 22999.7 508.106 15
-8 6 2 23014 479.789 7
-2 -6 -8 22449.1 498.331 15
-6 8 2 23818.6 492.328 7
-2 -6 8 25238.7 594.957 4
-2 6 -8 23973.4 523.116 2
-8 -2 -6 22978.8 546.323 15
-6 -2 -8 23302.8 561.146 15
-8 2 6 24216.4 419.354 7
-2 -8 6 23192.9 496.086 4
2 -6 -8 22560.1 480.028 14
-2 -6 -8 21561.1 506.434 14
-2 8 6 22805 479.751 7
-8 -2 -6 23322.2 376.373 14
-8 -2 6 21970.8 503.901 10
-6 2 8 22295.4 442.36 7
2 8 6 22381.5 420.245 7
-8 6 -2 19600.3 370.823 13
-8 -6 -2 19911.7 377.679 13
-2 6 8 21719.7 501.623 7
6 -2 8 20129.4 558.96 4
-8 6 2 22211 375.793 13
-8 -6 2 22504.9 386.601 13
-2 6 -8 23021.8 444.41 6
-8 -2 6 23228.1 310.38 26
-2 6 8 18229.9 337.071 24
-6 -8 -2 21909.5 387.226 12
-8 -6 -2 22720.9 473.216 12
-2 8 -6 23597.5 445.13 6
-8 6 -2 23724.4 473.605 6
-2 -8 6 22757.9 405.381 3
-6 -2 8 22604 523.136 10
-2 -8 -6 23465.6 406.062 3
-8 -6 2 23189.8 497.595 12
-6 -8 2 22726.9 434.52 12
-8 2 6 21787.2 375.03 12
-8 -2 6 22266.2 486.228 12
-8 6 2 23062.5 411.535 6
-8 -6 -2 22384.3 444.397 19
8 -2 6 22784.8 480.018 25
-6 2 8 21733.3 379.878 12
-8 -2 -6 21601.5 502.402 11
2 -8 -6 22961.7 289.219 27
-8 2 -6 23205.8 542.412 11
-8 2 6 20689.7 527.974 10
6 -2 8 23712.2 426.487 25
-6 -8 -2 23080.5 494.279 19
2 6 8 23790.1 490.377 24
8 2 6 23226.2 474.09 24
6 2 8 20153.6 468.857 24
2 -8 6 24068.1 414.184 3
-2 6 8 23078.4 438.719 10
6 -8 -2 20731.2 560.967 5
6 -2 -8 23992.5 540.216 5
2 -8 -6 23621.2 414.076 3
8 -6 -2 22586.9 555.872 5
-2 -6 8 25453.2 464.99 10
-2 8 6 19662.1 352.739 24
2 -8 -6 20227.3 488.141 5
2 -6 8 23244.6 477.695 9
2 -8 6 23995.7 558.377 9
2 -6 -8 20293.2 457.52 5
8 -2 -6 24125.3 524.022 5
6 -8 2 23246.8 551.867 9
8 -6 2 22897.9 541.371 9
6 -8 -2 21845 532.321 9
-6 -2 8 25799.1 451.654 19
-8 -2 6 24660.5 499.458 19
-8 -4 6 3079.68 220.956 19
-4 -6 8 2948.7 162.383 19
-8 -6 -4 2161.53 138.619 19
-6 -8 4 2274.4 185.744 19
4 -6 -8 2206.83 168.426 8
8 -4 -6 2570.07 137.205 8
-6 -8 -4 2417.47 163.957 19
6 -4 -8 2487.03 166.016 8
-4 -8 -6 2401.32 158.084 19
-6 -4 8 2351.61 167.513 4
4 -8 -6 2366.28 98.5625 27
-4 -8 -6 2513.71 174.313 18
4 -8 -6 2358.55 155.588 18
-6 -4 -8 2641.58 140.114 18
-6 -8 -4 2275.97 144.576 17
-4 -8 -6 2730.08 175.032 17
-4 -6 8 2379.39 183.93 16
-6 -8 4 2456.66 188.211 16
-4 -8 6 2309.61 195.574 16
8 4 -6 2304.69 150.7 8
-4 -6 8 2592.24 178.962 4
8 -4 6 2145.34 144.355 25
4 6 8 2151.4 169.09 24
-4 -8 -6 2228.62 188.786 15
-8 -6 -4 2328.7 185.563 15
-4 -6 -8 2474.51 188.612 15
8 4 6 2345.69 174.892 24
-8 -4 -6 2388.18 189.898 15
-8 6 4 2396.01 170.477 7
-6 -4 -8 2352.17 191.716 15
-6 8 4 2453.64 175.497 7
-8 4 -6 2471.8 195.275 11
-8 4 6 2319.95 157.13 7
4 6 -8 2437.82 170.813 2
-4 8 6 2364.6 176.202 7
4 -6 -8 2492.07 155.183 14
-8 -4 -6 2393.05 138.594 14
-4 -6 -8 2416.55 179.254 14
-6 4 8 2276.08 162.691 7
-6 -4 -8 2476.27 169.28 14
-6 4 -8 2400.14 137.45 2
6 4 -8 2394.27 143.614 2
-6 4 -8 2343.77 186.784 6
-4 6 -8 2365.48 157.562 2
-6 4 8 2078.61 175.279 10
-8 4 -6 2380.97 184.157 6
-4 6 -8 2396.29 171.281 6
6 -4 8 2078.76 117.032 25
4 -6 8 2272.33 229.016 4
-8 6 4 2294.7 130.728 13
-8 -6 4 2241.4 133.309 13
-8 6 -4 2603.4 186.289 6
-4 8 -6 2525.32 175.738 6
-6 8 -4 2452.99 185.387 6
-8 -6 4 2433.03 178.659 12
-6 -8 4 2412.19 162.363 12
-8 -4 6 2365.15 179.396 12
-8 -6 4 2488.77 195.585 19
-4 -8 6 2430.49 169.594 12
-8 6 4 2406.6 140.051 6
-6 8 4 2485.12 166.177 6
4 -8 6 2436.66 98.442 27
-4 6 -8 2462.71 159.077 11
-8 4 6 2225.23 187.986 10
-8 -4 6 2354.4 160.234 10
-4 6 8 2336.35 160.77 10
6 4 8 2566.44 183.486 24
-6 -4 8 2513.84 174.988 10
-4 -6 8 2406.13 143.335 10
6 -8 -4 2089.91 192.872 5
8 -6 -4 2359.85 194.001 5
4 -8 -6 1988.45 176.883 5
4 -8 6 2351.87 138.25 3
4 -8 -6 2367.14 140.956 3
4 -6 8 2398.32 160.742 9
4 -6 -8 2037.09 167.823 5
6 4 -8 2412.98 176.1 8
8 -4 -6 2265.97 180.923 5
-4 8 -6 2157.36 153.304 2
4 8 -6 2488.8 178.037 2
4 -8 6 2470.19 193.225 9
6 -4 -8 2406.48 189.497 5
6 -8 4 2277.77 187.878 9
8 -4 6 2328.62 144.581 9
8 -6 4 2401.94 179.092 9
-4 -8 6 2311.03 166.257 19
4 -8 -6 2342.72 144.901 9
6 -8 -4 2280.51 175.537 9
-6 4 -8 2500.5 182.307 11
-6 -4 8 3273.19 199.558 19
-6 -6 8 20822.6 482.827 19
-6 -8 6 17107.2 468.388 19
6 -6 -8 15399.2 433.833 8
-6 -8 -6 15461.8 358.232 19
-6 -8 -6 15206.3 410.606 18
-6 6 -8 16179.1 445.879 11
-6 -6 8 16646.9 413.688 4
-6 -6 -8 16229.5 386.994 18
6 -8 -6 15903.9 371.043 18
-6 -8 -6 15033.4 334.574 17
6 6 8 15458.8 446.37 24
-6 -8 -6 15008.1 509.737 15
-8 -6 -6 15180.1 500.293 15
-6 -6 -8 15365.8 504.112 15
-8 -6 6 19938.3 545.084 19
-8 6 6 15663.6 434.386 7
-6 8 6 15715.9 452.451 7
-6 6 8 15218.5 441.952 7
-6 -6 -8 15542.5 453.454 14
-6 6 -8 16048 472.077 6
-8 6 6 14860.2 345.953 13
-8 -6 6 15572.7 374.957 13
-6 6 -8 13529.1 348.147 2
-6 8 -6 15958.1 456.272 6
6 6 -8 14821.6 397.418 2
6 -8 -6 14425.6 398.486 9
-6 -8 6 15885 458.207 12
-6 -6 8 15609.1 372.479 10
-8 6 -6 16356.6 490.493 11
-6 8 6 14919.6 381.02 6
-6 6 8 13672.5 426.394 10
6 8 6 14928.3 451.885 24
8 6 6 15082 443.74 24
-6 8 -6 13461.4 346.466 2
6 8 -6 14777.5 400.234 2
8 -6 -6 15111.2 513.838 5
6 -6 8 16109.7 394.23 9
6 -8 6 16015.9 468.933 9
8 -6 6 15645.6 413.602 9
6 -8 6 16187.8 373.238 3
6 -8 -6 15395.3 377.832 3
-8 6 6 15427.7 308.824 6
-8 -8 0 17452.8 482.712 19
-8 -8 0 16662.5 467.565 15
0 -8 -8 16712.7 446.077 15
0 -8 -8 15447.3 468.691 14
0 -8 8 17622.4 605.326 4
0 8 8 17015.3 456.548 7
-8 -8 0 15998.9 409.909 12
-8 8 0 17493.1 439.94 6
-8 8 0 16853.3 459.277 7
-8 0 8 17331.1 418.576 12
-8 0 -8 17571.8 511.906 11
8 0 8 18829.5 459.412 25
-8 0 8 14674.5 498.15 10
0 8 8 15363.3 365.427 24
0 8 -8 16393.3 487.051 2
0 -8 -8 15562.5 396.076 5
8 0 -8 18249.5 426.923 8
8 -8 0 17331.7 533.998 9
8 -8 0 16044.6 524.912 5
8 0 -8 18829.4 502.516 5
8 2 -8 2048.85 170.24 5
-8 -8 2 2042.47 194.389 19
-8 -8 -2 1845.07 169.185 19
8 -2 -8 2053.89 142.694 8
-2 -8 -8 2159.75 147.851 19
-2 -8 -8 2024.7 172.432 18
8 2 -8 1944.22 145.949 8
-2 -8 8 1905.72 183.509 16
-8 -8 2 1643.86 149.326 15
-8 -8 -2 1878.32 176.854 15
-2 -8 -8 1982.97 176.88 15
-2 -8 8 2062.98 183.319 4
-8 2 8 1884.22 138.291 7
-2 -8 -8 1742.12 167.793 14
-8 -2 -8 2013.72 139.178 14
-2 8 8 2024.54 175.619 7
2 8 8 1938.33 155.758 7
2 -8 8 1684.85 221.486 4
8 -2 8 1375.88 163.469 4
-2 8 -8 1956.68 151.309 6
-8 -8 -2 1692.69 141.002 12
2 8 8 1697.78 147.312 24
-8 8 -2 1927.96 174.1 6
-8 -8 2 1963.68 159.94 12
-8 2 8 1818.06 120.811 12
-8 -2 8 1879.9 163.381 12
-8 8 2 1999.06 165.825 6
-8 2 -8 2096.53 190.503 11
8 -2 8 1999.77 146.253 25
-8 2 8 1730.54 175.482 10
-8 -2 8 1745.07 168.076 10
8 -8 -2 1816.34 191.647 5
-2 8 -8 1878.15 170.675 2
2 8 -8 2223.95 187.661 2
2 -8 -8 1714.85 157.517 5
2 -8 8 1685.94 131.892 10
2 -8 8 2110.31 188.43 9
8 -2 -8 2011.84 180.185 5
8 -8 2 1954.2 189.061 9
-8 -2 8 2087.17 173.607 19
8 -8 -2 1900.8 188.159 9
-8 -8 4 15330.1 492.043 19
-8 -8 -4 14421.1 386.853 19
8 -4 -8 15766 410.914 8
-4 -8 -8 14820.8 331.936 19
-4 -8 -8 14555.3 436.787 18
8 -4 8 11858.8 310.261 25
-4 -8 -8 15587.2 400.133 17
-4 -8 8 15162.9 504.945 16
8 4 -8 13798 421.427 8
-4 8 -8 13356 411.931 2
-4 -8 8 15163.6 415.863 4
4 8 -8 14881.4 464.402 2
-8 -8 -4 14360.4 494.04 15
-4 -8 -8 13702.8 476.977 15
-8 4 8 14093.4 398.261 7
-8 -4 8 16914.5 441.264 19
-4 8 8 14252.1 446.558 7
-8 -4 -8 14526.5 388.546 14
-8 -4 8 13587.8 416.036 10
4 8 8 13363.6 352.104 7
-4 8 -8 14704.1 421.512 6
-8 -8 4 14152.2 437.083 12
-8 -4 8 14698.8 477.816 12
-8 8 4 14504.6 371.614 6
4 8 8 13162.9 405.11 24
8 4 8 14092.7 414.846 24
8 -8 -4 13638.9 522.903 5
4 -8 -8 12511.8 450.557 5
-8 4 -8 14845.9 477.424 11
4 -8 8 14865 449.157 9
8 -4 -8 13468.6 481.247 5
-8 4 8 12734.6 457.073 10
-4 -8 8 16164.7 370.641 19
8 -8 4 13957.4 468.384 9
8 -8 -4 12877.6 447.378 9
-6 -8 8 1669.15 170.66 19
-8 -8 6 1653.02 202.36 19
8 -6 -8 1380.76 133.899 8
-8 -8 -6 1121.84 111.597 19
-6 -8 -8 1171.75 130.981 18
6 -8 -8 1201.72 124.22 18
8 6 -8 1078.44 133.462 8
-8 -6 8 1793.13 198.094 19
-6 -8 -8 1019.31 156.904 15
-8 6 8 1226.42 143.642 7
-8 6 8 1118.34 144.373 10
-8 6 -8 1402.51 176.845 6
-6 8 -8 1356.62 160.085 6
-8 6 -8 1372.8 162.143 11
-8 6 8 1138.01 111.006 13
-8 -6 8 1267.27 126.976 13
-8 -8 6 1251.78 148.932 12
-6 8 -8 978.281 107.668 2
6 8 -8 1119.11 127.884 2
-6 -8 8 1385.59 161.144 12
-6 8 -8 1240.05 136.749 11
-6 8 8 1041.53 123.715 6
8 8 6 914.343 136.319 24
8 6 8 1023.28 139.234 24
8 -8 -6 1051.16 168.72 5
8 -6 -8 1280.01 175.793 5
-8 8 6 1306.44 127.179 6
6 -8 8 1257.09 149.206 9
8 -8 6 1239.06 152.828 9
8 -8 6 1161.39 111.485 3
8 -8 -6 1103.73 149.028 9
-1 -9 1 14287.3 380.024 19
-1 -9 -1 14223.9 400.347 19
-9 -1 -1 17831.4 362.739 19
-1 -9 1 13237.8 363.43 17
1 -9 1 13236.2 339.66 17
1 1 -9 13891.8 333.726 8
1 -9 -1 14332.6 373.487 17
1 -1 -9 13589.1 351.884 2
-1 9 -1 13056.3 312.806 6
-1 1 9 13287 388.198 4
-1 -9 1 13923 442.084 15
1 -9 -1 14246 434.987 15
-9 1 1 12848.5 255.658 7
-1 -9 -1 14214.6 432.849 15
1 1 9 13123.7 369.503 4
-1 9 -1 13793.4 263.007 7
-1 -1 9 13248.9 398.747 4
-1 1 -9 14113 316.34 8
-1 9 1 14134.8 274.993 7
1 -1 9 14340.4 420.423 4
-9 -1 -1 13081 267.47 15
1 1 -9 13754.4 348.837 2
-1 -1 -9 14128.7 317.972 15
1 -9 1 13728.4 265.605 27
1 9 -1 13489.9 290.404 6
-9 1 -1 14464.9 351.99 13
-9 1 -1 11700.4 228.104 6
-9 1 1 14100 342.48 13
-9 1 -1 15072.3 348.098 12
-9 -1 -1 14220.5 353.114 12
-9 -1 1 13904.2 341.506 12
-1 -9 1 7938.77 432.291 1
9 1 1 14460.1 388.352 25
-9 -1 1 12623.7 246.985 11
9 -1 1 14087.2 392.095 25
-1 -9 1 13841.1 377.309 3
-9 1 1 12936.1 556.37 23
9 1 -1 13830.2 364.589 25
-1 1 9 13019.7 376.095 10
1 -9 1 14133.6 382.283 3
-1 -1 -9 14349.9 330.996 8
1 1 9 13585.6 387.499 10
-1 -1 9 15514.5 582.159 1
-1 -9 1 13546 356.962 9
-1 -9 -1 12928.6 305.492 9
-9 1 -1 9404.79 501.125 21
1 -9 1 13984.4 379.131 9
1 -9 -1 13270.7 337.032 9
1 -9 1 8931.92 540.781 20
1 -1 -9 14012.1 345.858 8
1 -9 -1 8988.67 496.124 20
-9 1 -1 16061.1 309.876 19
-9 1 1 16157.4 352.301 19
-9 -1 -1 12661.6 289.666 11
-9 -1 1 17836.7 402.878 19
-9 -3 1 14682.4 383.063 19
-9 -3 -1 14203.1 342.641 19
1 -3 -9 11417 347.816 2
-1 -3 -9 12154.1 337.257 8
-3 -9 1 12722.8 384.34 19
-1 -9 3 13122.8 354.684 19
-3 -1 -9 12977.7 298.222 8
1 -9 3 12955.3 324.279 19
-1 -9 -3 11621.6 342.18 18
1 -9 -3 11974.9 335.459 18
-1 3 9 12140.4 364.865 4
-3 1 9 12298.5 392.18 4
3 -1 -9 12781.5 346.326 8
-3 -9 -1 12280.3 372.126 17
-3 -1 -9 12278.1 336.687 2
1 3 9 12227.7 334.969 4
3 -9 1 11901.7 308.045 17
3 -1 -9 12345.3 340.955 2
-1 -9 3 12806.8 362.286 3
3 1 -9 12475.7 342.461 8
-1 -3 9 11532.9 263.53 16
-1 3 -9 13309.5 319.755 8
1 3 -9 12999.8 344.879 8
9 1 3 13901.9 399.062 25
-3 -9 1 12805.2 424.504 15
1 -9 -3 12896.9 410.857 15
-1 -9 -3 12056.1 403.251 15
-3 9 -1 12231.8 298.203 7
-9 3 1 11944.3 299.695 7
-9 1 3 12404.9 252.039 7
-3 1 -9 13208.2 283.235 8
3 1 9 11770.3 351.157 4
-3 1 -9 11991.3 325.175 2
-9 -3 -1 12061.9 289.503 15
-3 9 1 13010.8 313.227 7
3 1 -9 12488.2 337.097 2
-1 -3 -9 12508.2 313.168 15
-9 -1 -3 12295.2 329.647 15
-1 9 3 12775.2 298.863 7
-3 -1 -9 12465.8 352.817 15
1 -3 9 12354.3 430.464 4
-9 1 -3 11644.1 320.189 15
3 -1 9 12077.6 392.417 4
-9 1 -3 13162.4 360.069 13
-9 3 -1 12859.8 333.897 13
-9 -3 -1 12685.5 337.857 13
-9 3 1 12611.6 322.632 13
-9 -3 1 12803.4 332.244 13
1 3 -9 12518.7 356.448 2
-9 1 3 12180.2 330.298 13
-9 3 -1 11994.2 269.123 6
-9 3 1 11069.6 264.145 12
-9 -3 1 12304.3 345.862 12
-9 1 3 12200 298.308 12
-9 -1 3 12423.5 333.164 12
-3 -9 1 12562.6 371.943 3
-1 9 -3 11843.1 299.519 6
1 9 -3 11898.8 267.334 6
-3 9 -1 12045.8 331.945 6
1 -9 -3 12211.5 247.279 27
-9 -3 -1 10762 240.616 11
1 -9 3 12360.5 250.956 27
9 3 -1 14156.2 357.909 25
-9 -3 1 12151.8 270.093 26
-9 -1 -3 11400.8 318.592 11
9 3 1 13516.1 377.422 25
-3 9 1 12397.1 337.732 6
-9 1 -3 11924.4 357.347 11
-1 -9 -3 12700 357.083 3
3 -9 -1 11689.6 398.02 5
1 -9 -3 11372.3 367.201 5
9 1 3 10727.2 252.947 24
1 -9 3 12804.1 360.462 3
-3 1 9 11869.6 372.737 10
9 -3 -1 13497.5 326.484 5
-3 -1 9 12286 382.878 10
1 -9 -3 12546.5 355.56 3
-1 3 9 11853 353.256 10
-1 -3 9 13328.1 394.042 10
1 3 9 11855.9 351.298 10
1 -3 9 12417.9 391.544 10
-3 -9 1 11583.8 325.525 9
-1 -9 3 12380.2 381.123 9
9 -1 -3 13279 303.101 5
3 -9 1 12352.6 365.932 3
1 -9 -3 11937.1 284.789 9
3 -9 1 12882.5 386.823 9
3 -9 -1 12601.1 364.43 9
-9 1 3 14072.2 363.96 19
-1 -3 -9 11913 269.653 5
-9 -1 -3 13904.9 247.464 19
1 -3 -9 11779.8 310.679 5
-9 -3 -3 13264.3 293.943 19
-3 -3 -9 11347.8 318.231 8
-3 -9 3 11289.7 351.737 19
-3 3 9 11354.4 379.74 4
-3 -9 -3 11555.4 368.278 19
3 -3 -9 11070 341.956 8
3 -9 -3 10641.4 236.128 27
3 -9 3 11369.1 245.039 27
3 -9 -3 10799 307.775 18
-3 -9 -3 11256.7 363.527 17
-3 3 -9 11226.3 261.715 8
3 3 9 10611.2 290.247 4
3 3 -9 11977.7 356.44 8
-3 -3 9 11450.3 392.958 4
9 -3 3 10682.3 347.022 25
-3 -9 -3 10611 390.031 15
-9 3 3 11490.9 294.041 7
-9 -3 -3 11277.4 337.913 15
-3 -3 -9 10771.4 341.303 15
-3 9 3 11618.9 317.311 7
3 -3 9 11040.7 440.63 4
-3 3 -9 11478.1 330.311 2
-9 3 -3 11224.6 329.836 13
-9 -3 -3 11624.7 342.196 13
3 3 -9 12173.7 348.4 2
-9 -3 -3 10504.6 243.265 26
-9 3 -3 10581.8 294.268 6
-9 3 3 11126.8 313.064 13
-9 -3 3 11269.8 322.762 13
9 3 3 10631 298.478 24
-9 -3 3 11154.4 345.326 12
-3 -9 3 11057.6 344.437 3
-3 -9 -3 11195.4 343.004 3
-3 9 -3 10817 317.619 6
-3 -9 3 10702.9 247.796 12
-3 3 -9 11710 321.582 11
-9 -3 -3 9710.53 281.948 11
-9 -3 3 11037.8 251.145 26
3 -9 -3 10504.9 378.831 5
-3 3 9 10581.9 349.339 10
-3 -3 9 11939.4 374.151 10
9 -3 -3 11869.8 342.059 5
3 3 9 10034.2 335.732 10
3 -9 3 11646.6 352.297 3
3 -9 -3 11317.3 344.574 3
3 -9 -3 10794.2 315.74 9
3 -3 -9 11249.5 341.764 5
-3 -3 -9 10224.1 328.976 2
3 -3 -9 10291.9 332.192 2
9 -3 3 11079.5 323.339 9
5 -1 -9 10784.4 368.33 5
-9 -5 1 10183.1 337.428 19
-9 -5 -1 10021.4 312.598 19
-1 5 9 9967.43 326.765 4
-1 -5 -9 9337.62 333.719 8
1 5 9 9923.26 285.886 4
-1 -9 5 9819.06 280.508 19
-5 -9 1 10353.9 362.928 19
-5 -1 -9 10176.5 300.004 2
5 -1 -9 10343 312.026 2
-5 -1 9 10149.4 371.51 4
1 -9 -5 9883.37 325.56 18
5 -1 -9 10593.3 334.435 8
5 -9 1 10176 270.435 17
5 1 -9 10603 336.335 8
-1 -5 9 9750.11 301.393 16
-5 -9 -1 10030.6 273.404 16
-5 -9 1 10513.7 331.15 16
1 -5 9 9656.68 277.688 16
-5 1 -9 10513.2 302.272 2
5 1 -9 11146.5 318.289 2
-1 5 -9 9511.46 292.413 8
-9 5 -1 10191.4 323.392 7
-5 -9 1 9717.89 375.178 15
1 -9 -5 9093.42 337.745 15
-5 -9 -1 9480.45 371.724 15
-5 9 -1 9801.72 309.137 7
-1 -9 -5 9660.3 366.738 15
-9 5 1 10446.2 320.255 7
1 -9 -5 10431.4 311.242 3
-9 -5 -1 10079.2 305.419 15
-5 9 1 10109.2 318.955 7
-1 -5 -9 10004.8 310.573 15
-9 1 5 10625.2 243.716 7
5 1 9 9053.3 303.924 4
-1 -5 9 10462.3 416.715 4
-9 -1 -5 10326.3 357.843 15
-5 -1 -9 10223.9 364.21 15
-9 1 -5 10283.2 357.173 15
-5 1 -9 10915.5 381.982 15
-9 -1 -5 9722.58 337.703 11
-1 9 5 10393.8 306.594 7
5 -1 9 9535.1 373.71 4
1 9 5 10074.4 270.633 7
1 -5 -9 9709.48 331.438 14
-1 -5 -9 9788.66 343.42 14
-9 1 -5 10927.1 361.215 13
-1 -9 5 9371.99 332.141 4
-5 1 9 9415.16 290.988 7
-9 5 -1 9609.98 284.643 13
-9 -5 -1 9265.38 285.279 13
-9 5 1 9882.69 281.527 13
-9 -5 1 10120.3 290.849 13
-9 -5 1 9837.87 250.395 26
-5 -9 1 9777.09 348.991 3
-9 1 5 9707.55 318.598 13
5 -9 -1 9267.32 387.616 5
-9 5 -1 10146.8 292.335 6
-9 -5 -1 10150.1 338.079 12
-9 -5 1 9889.7 333.517 12
-1 9 -5 10217.7 286.499 6
-9 5 1 10264.8 266.402 6
-5 -9 1 9402.26 239.127 12
-9 1 5 9792.75 280.014 12
-9 -1 5 9610.3 309.68 12
1 5 -9 10403.1 357.565 2
-1 -9 5 9919.05 306.08 3
-5 1 -9 10464.2 356.54 11
-1 -9 -5 10350 307.996 3
-9 -1 -5 9768.44 220.931 26
-9 1 -5 10505.2 364.027 11
9 5 -1 11085.3 298.397 25
1 -9 5 10493.5 312.903 3
-1 -9 -5 8948.04 292.128 5
1 5 9 10011.2 310.132 24
9 -1 5 10705.9 351.477 25
-5 1 9 10017.5 363.681 10
-5 -1 9 10070.2 366.062 10
9 -5 -1 10076.4 344.156 5
1 -9 -5 9226.66 335.814 5
-1 5 9 10089.4 315.865 10
1 5 9 9834.5 301.231 10
-1 -5 9 10601.2 345.003 10
1 -5 9 10227.5 360.694 10
1 -9 5 10341.5 388.692 9
-9 -1 5 9399.31 344.702 10
-1 -5 -9 9779.28 259.169 5
1 -9 -5 10236.4 218.276 27
1 -5 -9 9423.32 297.918 5
9 -1 -5 10548.3 322.095 5
5 -9 -1 9752.43 354.6 9
9 1 -5 10616.2 292.096 5
5 -9 1 9956.93 339.714 3
-9 -1 5 10759.8 348.427 19
9 -5 1 9754.88 361.034 9
-9 -5 -3 9231.69 271.927 19
-3 -5 -9 8773.14 321.503 8
-5 -9 3 9732.65 361.119 19
3 -5 -9 8401.67 327.803 8
-5 -9 -3 9406.52 341.713 19
-3 -9 -5 9727.39 334.278 19
5 -3 -9 9046.98 320.962 8
5 -9 -3 8773.82 265.206 18
-3 -9 -5 9055.34 338.889 18
3 -9 -5 8709.74 297.315 18
-5 -3 9 9495.07 357.894 4
-5 -9 -3 8794.72 313.723 17
9 3 5 9389.9 303.659 24
-3 -9 -5 9940.88 351.554 17
-3 -5 9 9063.97 318.1 16
-3 5 -9 8422.38 242.265 8
5 3 -9 9718.08 347.059 8
-5 -9 3 9566.62 359.839 16
9 3 -5 7826.08 231.683 8
-5 -9 3 8382.08 341.379 15
-3 -5 9 9902.25 375.745 4
-3 -9 -5 8438.52 353.599 15
-9 5 3 9573.09 311.959 7
-9 -5 -3 9123.62 330.996 15
-3 -5 -9 8967.05 333.445 15
-3 -9 5 9414.03 312.741 19
-9 3 5 9446.72 278.663 7
-5 9 3 9452.58 323.955 7
-9 -3 -5 9080.61 347.08 15
-5 -3 -9 8738.46 348.545 15
-5 3 -9 9422.46 291.775 2
-3 9 5 9304.7 320.057 7
5 3 -9 9976.94 309.798 2
3 -5 -9 9458.87 311.204 14
-9 3 -5 9652.47 335.442 13
-9 -3 -5 9526.82 337.433 13
-9 5 -3 9054.93 290.553 13
-9 -5 -3 8553.67 287.539 13
3 -5 9 10009.1 452.664 4
5 -3 9 8387.67 401.883 4
-5 3 9 8583.29 307.806 7
3 -9 5 9280.13 213.489 27
-9 3 -5 8835.2 316.391 6
-9 5 3 8912.88 273.517 13
-9 -5 3 9414.91 290.061 13
-5 -9 3 8985.74 330.926 3
-5 -9 -3 9111.77 328.921 3
-9 3 5 9060.88 302.62 13
-9 -3 5 9359.82 317.651 13
-9 5 -3 9541.45 313.701 6
-9 -5 -3 8997.26 326.435 12
-3 -9 5 9084.22 299.977 3
-3 -9 -5 9577.6 302.805 3
-3 5 -9 9267.49 325.98 2
-5 9 3 9351.16 318.545 6
-3 9 -5 9695.51 314.367 6
3 5 -9 9431.34 344.452 2
-5 9 -3 9233.15 325.218 6
-9 5 3 8878.6 227.591 6
-5 -9 3 9071.3 269.13 12
-9 -3 5 9156.67 332.242 12
-3 -9 5 8877.84 276.519 12
-9 -3 -5 8220.48 305.816 11
3 -9 -5 9113.7 212.697 27
-5 3 -9 9448.97 331.292 11
-5 -3 -9 9401.03 269.314 8
-9 -3 5 9272.75 219.343 26
5 -3 9 8891.84 222.175 25
9 -3 5 8572.38 309.479 25
5 3 9 8079.79 308.76 24
-5 3 9 7973.43 336.736 10
-3 5 9 9055.98 317.01 10
-5 -3 9 9331.27 343.694 10
3 -9 -5 8001.52 345.005 5
-3 -5 9 9962.21 334.557 10
9 -5 -3 9075.04 348.801 5
3 5 9 8299.7 287.41 10
3 -9 5 9587.08 305.117 3
3 -9 -5 9136.91 300.252 3
3 -5 9 9080.69 271.263 9
9 -3 -5 9163.16 331.822 5
3 5 9 9412.72 321.736 24
3 -9 5 9772.76 381.729 9
3 -5 -9 8495.59 319.452 5
5 -9 3 9477.35 370.32 9
3 -9 -5 8877.45 260.335 9
5 -9 3 9160.65 322.859 3
9 -3 5 9051.48 264.285 9
5 -9 -3 8731.33 320.594 9
5 -9 -3 8716.67 317.152 3
9 -5 3 9063.14 340.364 9
-5 -3 9 10837.8 270.88 19
-9 -3 -5 8790.17 210.874 26
-9 -3 5 11984.7 411.926 19
-9 -5 5 9556.49 389.081 19
-5 -9 5 7559.31 315.78 19
-5 9 5 7220.45 292.542 6
5 -5 -9 7336.55 311.74 8
-5 -9 -5 8134.3 306.722 19
5 -9 -5 7189.02 260.301 18
-5 -9 -5 7481.59 285.091 17
-5 -5 9 8066.19 327.545 4
5 5 -9 7616.8 332.579 8
-5 -9 -5 7003.92 346.086 15
-9 -5 -5 7590.93 341.717 15
-5 -5 -9 7285.41 337.464 15
-9 5 5 7914.83 296.033 7
-5 9 5 7655 311.629 7
-5 -5 -9 7593.29 324.631 14
-5 5 9 7408.77 316.075 7
-5 5 -9 8349.03 308.757 11
5 -5 9 6640.4 411.813 4
-5 5 -9 7559.85 280.195 2
5 5 -9 7828.63 301.724 2
-9 5 -5 7221.52 303.582 6
-9 5 5 7178.24 259.015 13
-9 -5 5 7845.62 284.365 13
-5 9 -5 7933.52 318.077 6
-5 -9 5 7493.69 283.198 12
9 5 5 7105.91 293.432 24
-5 5 9 7083.24 315.123 10
-5 -5 9 7999.66 302.117 10
5 5 9 6174.14 251.316 10
9 -5 -5 7398.83 345.676 5
5 -9 5 7667.22 283.937 3
5 -9 5 7854.76 349.764 9
5 -9 -5 7648.39 287.896 3
9 -5 5 7349.93 283.249 9
5 -9 -5 6948.7 270.817 9
-5 -5 9 10612.6 306.998 19
-1 -7 -9 6873.82 325.484 8
7 1 -9 8297.86 353.035 5
-9 -7 1 7498.02 328.895 19
-9 -7 -1 7711.43 315.059 19
-9 -1 7 6961.95 331.926 10
-7 -1 9 7141.73 335.406 4
-7 -9 -1 7565.34 331.131 19
-7 1 -9 7638.11 234.698 2
9 -1 -7 7987.21 245.152 8
7 -1 -9 8176.18 306.231 8
1 -9 -7 7248.26 306.158 18
9 1 -7 7180.8 242.329 8
7 1 -9 7919.74 308.793 8
-1 -7 9 7380.48 316.655 16
1 -7 9 7820.17 305.578 16
9 -7 -1 7094.66 342.177 5
-7 -9 1 7315.68 326.893 15
-7 9 -1 7307.08 305.754 7
-9 -7 1 6869.88 262.897 15
1 -9 -7 6529.21 283.096 15
-7 -9 -1 6942.09 335.622 15
-1 -9 -7 7291.63 328.379 15
-9 -7 -1 7668.26 315.256 15
-7 9 1 7844.22 317.49 7
-1 -7 -9 7371 298.422 15
1 -9 -7 7568.87 240.205 3
-9 1 7 7868.59 226.013 7
-1 -7 9 8185.63 390.593 4
-9 -1 -7 7907.7 357.815 15
-7 -1 -9 7636.54 354.058 15
-9 1 -7 8054.5 362.861 15
-7 1 -9 7851.21 366.703 15
-1 -9 7 6987.12 324.667 4
1 -7 -9 7280.39 316.707 14
-1 -7 -9 7130.69 322.552 14
-7 1 9 7424.38 251.494 7
1 -7 9 7476.84 422.768 4
-1 9 7 7721.72 300.349 7
7 -1 9 6079.52 309.335 4
1 9 7 7800.28 285.284 7
-9 -7 -1 5821.22 206.839 13
-1 7 9 7656.07 325.921 7
1 -9 7 6647.64 381.633 4
-1 7 9 6122.2 218.072 24
-9 -7 1 5961.28 206.886 13
-1 7 -9 7789.02 268.133 6
9 -1 7 4692.06 250.437 4
-1 9 -7 8499.62 273.743 6
-7 -9 -1 6479.04 231.855 12
-9 -7 -1 6950.33 292.384 12
-9 -7 1 7224.65 302.596 12
-9 7 -1 7634.32 292.339 6
-7 -9 1 6650.21 248.676 12
-1 -9 -7 7612.48 236.858 3
-9 7 1 7610.41 273.044 6
-9 1 7 7202.49 253.49 12
-7 9 -1 7333.56 310.26 6
-9 -1 7 7251.75 288.82 12
-7 1 9 7165.17 257.053 12
-7 9 1 7608.38 308.477 6
-7 -1 9 7469.29 301.183 12
-7 1 -9 7788.9 341.641 11
1 7 -9 7418.03 323.208 2
-9 -1 -7 7290.5 162.663 26
9 1 7 8551.06 329.911 25
7 -1 9 7962.69 270.756 25
7 -9 -1 6816.95 360.896 5
9 -1 7 7711.48 298.721 25
1 9 7 6298.85 254.23 24
-1 9 7 6276.54 219.524 24
-7 -1 9 6921.95 335.078 10
1 7 9 6999.29 264.336 24
-1 -9 -7 6508.73 246.445 5
-1 7 9 7466.65 249.538 10
1 -9 -7 6603.87 291.449 5
-1 -7 9 7871.79 280.229 10
1 -7 9 7599.44 302.118 10
1 -7 -9 7007.78 282.018 5
1 -9 7 7924.38 362.275 9
1 9 -7 7121.11 331.776 2
9 -1 -7 8404.52 335.718 5
7 -9 -1 7193.82 335.022 9
-9 -1 7 8235.82 329.754 19
9 1 -7 7820.75 304.435 5
9 -7 1 7596.84 356.543 9
7 -1 -9 8429.6 355.327 5
9 -7 -1 7100.41 346.485 9
9 -7 -3 6005.57 320.443 9
9 3 -7 6608.19 270.702 5
-9 -7 3 7616.37 348.073 19
-3 -9 7 6874.53 251.046 19
3 -7 -9 5808.13 312.867 8
-9 -7 -3 6688.69 270.683 19
-7 -9 3 7004.39 336.788 19
-7 -9 -3 7234.12 312.504 19
-7 -3 9 7000.42 316.261 4
7 -3 -9 7735.56 297.538 8
-3 -9 -7 7000.09 273.815 19
-3 -9 -7 6708.63 305.517 18
3 -9 -7 6650.63 286.426 18
-3 -7 -9 6969.8 304.672 18
-3 -9 -7 7478.12 314.537 17
-7 -9 3 7392.01 324.064 16
9 3 -7 6190.78 248.843 8
7 3 -9 7010.59 312.107 8
-3 -7 9 6864.17 321.284 16
-3 -9 7 7085.45 358.017 16
-7 3 -9 6744.42 226.155 2
-7 -9 3 5289.86 280.01 15
-3 7 -9 5270.48 201.035 8
-3 -7 9 7174.2 330.008 4
-7 -9 -3 6617.93 344.209 15
-3 -9 -7 6451.89 325.063 15
-3 -9 7 7233.32 283.943 4
-9 -7 -3 6910.35 323.686 15
-9 7 3 6979.22 302.372 7
-3 -7 -9 6549.5 318.476 15
-7 9 3 6834.38 306.687 7
-9 -3 -7 6787.81 338.026 15
-7 -3 -9 6700.79 339.454 15
-9 3 7 6719.3 252.742 7
3 -7 -9 6354.36 279.378 14
-3 9 7 6983.89 306.542 7
-7 3 9 6630.29 269.163 7
-7 -3 -9 7012.73 289.653 14
-3 7 9 6610.79 313.529 7
7 -3 9 5864.8 344.429 4
-3 7 -9 7176.09 291.285 6
-9 -7 3 5804.65 208.566 13
-3 9 -7 7234.95 286.473 6
-9 7 -3 7074.87 301.501 6
-9 -7 3 6462.45 302.275 12
-7 -9 3 6290.62 264.864 12
-9 7 3 6781.32 243.886 6
-9 -3 7 6669.06 306.759 12
-7 3 -9 7002.54 322.45 11
-7 -3 9 6958.82 323.035 12
-3 7 -9 6351.7 291.693 2
3 7 -9 6530.24 307.008 2
-7 9 3 6929.75 284.018 6
3 -9 -7 6904.87 166.656 27
-9 3 -7 7296.22 344.217 11
-9 -3 7 6296.87 295.686 10
7 -3 9 6328.55 217.165 25
9 -3 7 6407.83 259.883 25
3 9 7 6282.69 276.165 24
-7 3 9 6062.75 320.291 10
-7 -3 9 6560.25 313.245 10
-3 7 9 6456.3 258.536 10
3 7 9 6867.1 280.801 24
3 -9 -7 6774.95 235.518 3
9 3 7 6631.42 273.957 24
7 -9 -3 5992.71 345.68 5
9 -7 -3 6882.8 352.882 5
3 -9 -7 5851.55 307.568 5
-9 3 7 5456.73 327.503 10
3 -7 9 7207.91 295.201 9
3 -7 -9 6169.79 300.846 5
-3 9 -7 6291.26 292.775 2
3 9 -7 6787.43 320.308 2
3 -9 7 7002.58 335.698 9
9 -3 -7 6893.07 324.346 5
7 -3 -9 7071.28 343.84 5
7 -9 3 7025.62 346.882 9
9 -7 3 6429.89 314.907 9
7 -9 -3 6757.86 326.393 9
-7 -3 9 8055.26 287.334 19
-9 -3 7 7902.42 325.995 19
9 -7 -5 5013.28 290.512 9
-9 -7 5 7256.09 365.693 19
-5 -9 7 6378.19 278.771 19
-9 -7 -5 5881.79 219.751 19
-7 -9 5 6324.65 323.776 19
5 -7 -9 4843.16 291.484 8
7 -5 -9 6073.27 279.874 8
-7 -9 -5 5955.2 260.787 19
-5 -9 -7 5754 234.605 19
-7 -5 9 6262.65 281.142 4
-7 9 5 5661.81 253.281 6
-5 -9 -7 5722.91 284.356 18
5 -9 -7 6018.6 260.732 18
-5 -7 -9 6135.91 274.18 18
-5 -7 9 6253.99 278.365 4
-5 -9 -7 5616.6 240.356 17
-5 -9 7 6265.7 342.737 16
-7 5 -9 5948.76 294.891 11
7 5 -9 5288.76 290.968 8
9 5 -7 5008.63 243.47 8
-5 -9 -7 5282.56 317.697 15
-9 -7 -5 5887.81 325.091 15
-5 -7 -9 5311.55 305.767 15
-9 -5 -7 5875.71 329.459 15
-9 7 5 5786.8 283.113 7
-7 -5 -9 5455.75 321.346 15
-7 9 5 6242.76 303.601 7
-7 5 -9 4769.85 196.05 2
-5 9 -7 4960.05 231.956 11
-9 5 7 5760.62 265.107 7
-5 9 7 5696.64 294.261 7
-7 5 9 5805.66 279.564 7
-5 -7 -9 5626.79 299.326 14
-7 -5 -9 5860.83 279.478 14
-9 5 -7 5579.98 300.47 6
-5 7 -9 5657.13 287.962 6
5 -7 9 4939.99 368.515 4
7 -5 9 4552 340.26 4
-9 -7 5 5034.83 206.122 13
-9 7 -5 6278.13 303.043 6
-5 9 -7 5945.84 286.506 6
-9 5 7 5282.51 238.486 13
-9 -5 7 5476.87 256.777 13
5 -9 -7 5780.12 159.058 27
-7 9 -5 5925.62 298.874 6
-5 7 -9 5057.31 241.192 2
5 7 -9 5583.15 272.534 2
-9 -7 5 5756.64 302.948 12
-7 -9 5 5617.15 272.901 12
-9 -5 7 5651.3 303.29 12
-9 7 5 5239.89 200.798 6
-5 -9 7 5812.29 285.19 12
-7 -5 9 5625.16 311.919 12
-5 7 -9 5844.35 248.191 11
-7 -5 9 5460.07 259.38 10
-7 5 9 5350.31 292.384 10
-5 7 9 5192.09 253.572 10
5 9 7 4831.49 259.105 24
9 7 5 5159.41 265.089 24
5 7 9 5339.58 264.073 24
9 5 7 5737.3 268.579 24
7 5 9 5621.31 272.085 24
-5 9 -7 4945.6 239.786 2
5 9 -7 5860.12 284.964 2
7 -9 -5 4874.62 325.439 5
-7 9 -5 4183.27 183.689 2
9 -7 -5 5454.15 332.601 5
5 -9 -7 4961.62 310.459 5
5 -9 -7 5633.22 222.999 3
-9 5 -7 5977.1 318.857 11
5 -7 -9 5502.95 315.065 5
9 -5 -7 6153.11 338.653 5
5 -7 9 5729.65 254.424 9
5 -9 7 5870.74 306.364 9
7 -5 -9 5356.9 316.443 5
7 -9 5 5940.69 313.83 9
9 -7 5 6063.62 296.201 9
7 -9 5 5968.21 258.845 3
7 -9 -5 5602.59 258.31 3
7 -9 -5 5414.78 280.194 9
-7 -5 9 6867.99 268.55 19
-9 -5 7 8111.15 375.284 19
9 -7 -7 3631.43 243.987 9
-7 -9 7 5549.59 302.737 19
7 -7 -9 4378.63 250.197 8
7 7 -9 3857.51 260.705 8
9 7 -7 3800.8 224.498 8
-7 -9 -7 3732.28 282.041 15
-9 -7 -7 4029.1 289.298 15
-7 -7 -9 3777.42 278.82 15
-9 7 7 4374.91 250.192 7
-7 9 7 4330.51 263.276 7
-7 7 9 4204.38 259.725 7
-7 7 -9 1076.83 95.6968 2
7 7 -9 3493.81 187.872 2
-7 7 -9 4070.45 266.138 6
7 -7 9 3202.37 307.567 4
-7 9 -7 4443.03 266.619 6
-9 -7 7 2881.29 160.765 13
-9 -7 7 4157.62 271.475 12
-7 -9 7 4086.1 251.773 12
-7 9 -7 1021.13 92.8226 2
7 9 -7 3583.28 189.804 2
7 -9 -7 4183.96 139.314 27
-7 7 -9 4185.73 238.87 11
-7 9 7 4094.92 210.337 6
-9 7 -7 4313.78 273.868 11
-7 9 -7 3982.5 233.183 11
-7 7 9 3631.73 232.671 10
7 9 7 3542.66 225.437 24
9 7 7 3811.65 224.635 24
7 7 9 3949.67 230.482 24
9 -7 -7 3987.21 298.43 5
7 -9 -7 4146.31 199.344 3
7 -9 7 4092.92 253.632 9
9 -7 7 4109.23 223.561 9
7 -9 -7 3571.01 198.886 9
-7 -7 9 6492.96 292.614 19
-9 -7 7 5720.06 332.039 19
-9 -9 -1 5360.59 295.806 19
9 -1 -9 5677.1 245.23 8
-1 -9 -9 5380.58 238.058 19
9 1 -9 5386.54 252.165 8
1 -9 -9 5481.09 288.223 18
-1 -9 9 5262.85 302.605 16
1 -9 9 5525.68 296.911 16
-9 -9 1 4772.85 261.228 15
-9 -9 -1 4932.43 285.359 15
-9 9 1 5049.06 283.571 7
-1 -9 -9 4889.68 271.356 15
-1 -9 9 5738.92 328.277 4
1 -9 9 4898.89 332.585 4
-1 9 9 5248.42 273.49 7
-9 -1 -9 3774.96 181.231 14
1 9 9 5070.95 261.606 7
-9 -1 9 4356.56 285.265 10
-9 -9 -1 4129.71 222.937 12
-9 -9 1 4451.19 240.43 12
-9 9 -1 5377.99 273.612 6
-9 9 1 5159.55 256.011 6
-9 1 9 4872.4 217.936 12
-9 -1 9 4829.98 250.533 12
-9 1 -9 5258.24 306.093 11
9 1 9 5602.19 258.982 25
9 -1 9 5168.8 232.232 25
1 9 9 4290.75 202.891 24
1 -9 -9 4509.56 243.448 5
1 9 -9 4095.77 267.384 2
9 -1 -9 5629.22 309.498 5
9 -9 1 4955.22 308.004 9
9 1 -9 5873.66 297.782 5
9 3 -9 4913.43 265.615 5
-9 -9 3 5203.89 317.114 19
-9 -9 -3 5003.89 265.876 19
9 -3 -9 5925.73 252.8 8
-3 -9 -9 4372.79 261.419 18
3 -9 -9 4669.81 260.265 18
9 3 -9 4453.54 233.191 8
-3 -9 9 5173.02 309.007 16
-3 9 -9 3296.99 163.826 8
-3 -9 9 5207.11 268.483 4
-9 -9 -3 4476.96 290.368 15
-3 -9 -9 4571.82 279.946 15
-9 3 9 4582.68 216.634 7
-9 3 -9 5263.5 327.799 15
-3 9 9 4516.26 266.135 7
-9 -3 -9 1614.19 125.301 14
3 -9 9 3957.91 346.626 4
3 9 9 4687.82 227.174 7
9 -3 9 3441.07 260.397 4
-3 9 -9 4955.33 248.741 6
-9 9 -3 5019.29 273.77 6
-9 -9 3 4232.38 241.754 12
-9 9 3 4677.22 232.691 6
-9 -3 9 4874.25 277.046 12
-9 3 -9 4955.66 294.447 11
-3 9 -9 3751.56 235.214 2
3 9 -9 4582.91 271.725 2
-9 3 9 3768.86 271.744 10
-9 -3 9 4645.41 269.332 10
9 -3 9 3911.56 185.808 25
3 9 9 4327.78 220.547 24
9 -9 -3 4353.85 312.438 5
3 -9 -9 3809.27 251.463 5
3 -9 9 5059.45 281.41 9
9 -3 -9 4624.27 292.868 5
9 -9 3 4860.93 305.06 9
9 -9 -3 4527.93 292.687 9
0 -10 0 3273.64 212.499 19
0 0 -10 3012.44 171.543 8
0 -10 0 2966.53 190.698 17
0 -10 0 3109.88 237.88 15
0 0 -10 2906.73 181.508 2
0 0 10 2732.51 197.502 4
0 0 -10 3083.43 150.234 15
-10 0 0 2894.52 177.003 13
-10 0 0 2763.01 169.308 12
0 -10 0 2780.57 135.359 27
0 10 0 2861.39 169.115 6
-10 0 0 2711.43 151.875 11
10 0 0 2921.2 188.324 25
0 -10 0 3030.14 197.948 3
0 0 10 2885.41 202.482 10
0 -10 0 2776.18 181.744 9
-10 0 0 3375.88 175.508 19
0 -2 -10 22782.5 440.806 5
0 -2 -10 21836.3 510.822 2
-2 -10 0 24213.6 558.292 19
0 -10 2 24278.1 515.484 19
0 -2 -10 23743.5 500.028 8
-2 0 -10 24318.4 454.022 8
2 -10 0 23543.7 501.229 17
0 2 10 22709.1 535.429 4
0 2 -10 23402.1 473.992 8
0 -10 -2 24106.3 553.197 17
-2 0 10 23337.2 581.797 4
-2 0 -10 23144 506.105 2
2 0 -10 23594.4 516.272 2
-2 -10 0 21976.4 612.522 15
0 -10 -2 21747.5 603.46 15
-2 10 0 23650.1 407.277 7
2 0 10 23666.3 576.726 4
0 -2 10 24780.3 632.603 4
-10 0 -2 22776.4 414.868 15
0 2 -10 23590.4 512.881 2
-2 0 -10 24118.9 491.299 15
-10 0 -2 23266.9 512.242 13
-10 2 0 23210.5 487.619 13
-10 -2 0 23118.5 496.851 13
-10 0 2 23138.7 497.268 13
-10 0 -2 22928.7 501.248 12
-10 2 0 21797.6 437.081 12
-10 -2 0 22717.7 505.485 12
-10 0 2 22285.7 461.611 12
0 10 -2 23543.3 430.391 6
-2 -10 0 24241.2 563.836 3
-2 10 0 22852.9 479.986 6
-10 0 -2 22732 472.456 11
10 0 2 24641.9 557.019 25
10 2 0 25224.7 532.976 25
0 -10 2 24166.5 551.613 3
0 -10 -2 23590.2 540.629 3
-2 0 10 22992.4 560.142 10
0 2 10 23345 543.814 10
0 -2 10 24937.3 597.537 10
2 -10 0 24122.6 553.396 3
2 0 10 22868 576.171 10
-2 -10 0 22863 467.414 9
2 -10 0 22818.8 382.138 27
0 -10 2 23465.4 552.454 9
0 -10 -2 22998.6 433.19 9
2 -10 0 23691.1 532.279 9
-10 0 -2 27476.5 410.772 19
-10 0 2 27070.8 516.281 19
2 10 0 23902.6 419.059 6
-10 -2 0 29974 550.379 19
-2 -2 -10 2476.48 126.177 5
2 -2 -10 2626.23 170.743 5
-2 -2 -10 2432.84 170.286 2
2 -2 -10 2504.77 174.682 2
-2 -10 2 3032.68 207.745 19
-2 -2 -10 2789.69 165.009 8
2 -10 2 2836.03 180.785 19
-2 2 10 2586.11 190.821 4
2 -10 2 2567.29 166.722 17
-2 2 -10 2847.65 152.194 8
2 -10 -2 2957.62 199.126 17
2 2 10 2713.78 176.166 4
2 -10 -2 2430.06 206.808 15
-2 -10 -2 2492.06 210.714 15
-10 2 2 2543.6 141.029 7
-10 -2 -2 2616.86 152.492 15
-2 10 2 2720.42 154.907 7
-2 -2 -10 2463.3 162.596 15
2 -2 10 2631.24 214.391 4
-2 2 -10 2750.86 176.114 2
2 2 -10 2867.97 181.88 2
-10 2 -2 2377.94 140.722 15
-10 2 -2 2668.6 178.298 13
-10 -2 -2 2717.94 182.687 13
-10 2 -2 2390.44 139.241 6
-10 2 2 2760.9 174.131 13
-10 -2 2 2612.96 173.485 13
-10 -2 -2 2764.82 187.907 12
-10 2 2 2315 141.828 12
-10 -2 2 2611.14 175.279 12
-2 -10 2 2581.56 187.78 3
-2 10 -2 2633.65 173.034 6
-2 -10 -2 2748.19 192.555 3
2 10 -2 2806.16 143.537 6
2 -10 2 2734.14 134.352 27
2 -10 -2 2581.57 130.788 27
-10 -2 -2 2455.35 147.002 11
-10 -2 2 2701.22 135.308 26
-10 -2 -2 2716.12 134.962 26
10 2 2 2951.97 194.187 25
-2 10 2 2657.15 183.108 6
2 -10 -2 2350.58 195.664 5
10 -2 2 2475.07 182.035 25
-2 2 10 2853.59 198.985 10
-2 -2 10 2582.47 192.574 10
2 -10 2 2875.97 194.687 3
2 -10 -2 2922 195.338 3
2 2 10 2468.76 183.656 10
-2 -10 -2 2364.28 130.844 9
-2 -10 2 2571.24 190.933 9
2 -10 2 2861.1 209.609 9
2 -10 -2 2738.65 174.042 9
-10 -2 -2 3497.58 177.71 19
-10 -2 2 3641.48 228.346 19
-10 -4 0 2961.5 200.504 19
0 -4 -10 2371.3 178.715 8
-4 -10 0 2341.16 200.903 19
0 -10 4 2420.61 162.553 19
-4 0 -10 2667.04 134.799 8
0 4 10 2310.36 166.592 4
0 -10 -4 2457.97 179.607 18
4 0 -10 2469.89 173.516 8
-4 0 -10 2427.91 162.59 2
4 -10 0 2375.35 160.185 17
4 0 -10 2384.4 165.681 2
0 4 -10 2397.23 161.421 8
-4 -10 0 2318.74 165.532 16
-10 4 0 2234.43 161.644 7
-4 -10 0 2200.15 204.635 15
0 -10 -4 2059 188.498 15
-4 10 0 2422.78 164.645 7
4 0 10 2275.57 179.055 4
-10 0 -4 2382.65 170.552 15
0 10 4 2498.24 144.448 7
-4 0 -10 2477.27 185.494 15
-10 0 -4 2229.36 178.153 13
-10 4 0 2025.13 152.923 13
-10 -4 0 2283.35 165.497 13
0 4 -10 2397.77 179.809 2
-10 0 4 2333.7 171.473 13
-10 4 0 2292.25 133.077 6
-4 -10 0 2447.33 189.982 3
-10 0 4 2234.08 154.352 12
0 10 -4 2319.78 148.462 6
-4 10 0 2390.95 183.201 6
-10 0 -4 2469.31 183.223 11
-10 -4 0 2358.17 128.875 26
10 4 0 2483.04 161.488 25
0 -10 4 2459.66 180.483 3
10 0 4 2603.43 186.145 25
0 -10 -4 2527.65 178.374 3
0 -10 -4 2083.98 170.52 5
0 4 10 2323.35 170.064 10
0 -4 10 2509.33 194.645 10
4 -10 0 2373.52 180.922 3
4 -10 0 2424.78 193.889 9
0 -4 -10 2347.74 148.45 5
-10 -4 2 23197 558.057 19
-10 -4 -2 22622.3 461.121 19
-4 -2 -10 18900.6 465.57 2
4 -2 -10 19609.5 480.391 2
-2 -4 -10 18840 476.341 8
-4 -2 -10 20916.2 417.703 8
-2 4 10 19628.7 515.499 4
-2 -10 4 19257.6 460.526 19
-4 -10 2 19223.9 519 19
2 -4 -10 19019.5 506.006 8
-4 2 10 18385.9 548.573 4
-4 -10 -2 20463.3 546.361 19
2 -10 4 19766.8 390.951 19
-2 -10 -4 20337.9 538.053 19
2 4 10 18412.7 410.22 4
4 -2 -10 19914.2 491.301 8
-4 2 -10 20800.5 356.303 8
2 -10 -4 18091.2 456.467 18
4 -10 2 19173.7 353.871 27
4 -10 2 17892 393.847 17
-4 -10 -2 19166.2 508.992 17
-4 -2 10 19432 550.136 4
-10 -2 4 19679 347.602 26
-2 -10 -4 20361.7 538.526 17
4 2 -10 20073.3 496.309 8
-2 4 -10 19761 414.77 8
2 4 -10 19525 493.932 8
-4 -10 -2 18733.4 374.433 16
-4 -10 2 19540.8 532.183 16
-4 -10 2 17296.4 545.359 15
2 -10 -4 15561.5 481.041 15
-4 10 -2 18705.6 420.655 7
4 2 10 17082.1 414.419 4
-2 -10 -4 17062 550.115 15
-2 -4 10 19988.9 579.049 4
-10 4 2 19190.8 426.767 7
-4 2 -10 20069.3 462.71 2
4 2 -10 20524.9 485.511 2
-10 2 4 19253.3 366.245 7
-10 -4 -2 18931.8 438.1 15
-4 10 2 20097.2 454.769 7
-2 -4 -10 18803 461.202 15
-10 -2 -4 18723.9 470.459 15
-4 -2 -10 19208 506.886 15
-2 10 4 19203.4 425.113 7
-10 2 -4 17917.5 471.588 15
2 -4 10 19311.8 616.779 4
4 -2 10 18293.6 559.701 4
2 -4 -10 19480.3 477.848 14
-10 2 -4 18893.5 490.127 13
-10 -2 -4 18633.9 489.458 13
-10 4 -2 17722.3 436.219 13
-10 -4 -2 17218 438.418 13
-2 4 -10 20160.6 493.789 2
2 4 -10 20524 516.802 2
-10 4 2 18179.8 427.35 13
-10 -4 2 18902.2 449.082 13
-10 2 4 18342.8 453.704 13
-10 -2 4 19089.4 472.756 13
-10 4 -2 18968.4 407.263 6
-4 -10 2 19889.9 524.227 3
-10 2 4 17611.2 375.635 12
-4 -10 -2 19077.1 509.891 3
-10 -4 2 18481.8 485.039 12
-10 -2 4 18428.2 468.639 12
-2 10 -4 18487.6 426.15 6
-2 -10 4 18909.4 481.069 3
-2 -10 -4 19178.9 477.448 3
-4 10 -2 18465.4 462.6 6
-10 -2 -4 17183.4 436.619 11
2 -10 -4 18916.5 339.314 27
4 -10 -2 18584.9 350.054 27
2 -10 4 19290.6 345.003 27
-10 -4 2 18764 352.602 26
-10 -4 -2 18885.2 352.253 26
-10 2 -4 20107 528.452 11
10 4 2 20224.1 489.686 25
10 2 4 20099.8 512.054 25
10 -2 4 18225.4 481.799 25
10 4 -2 18776.4 389.575 25
10 4 2 16997.3 378.004 24
10 2 4 16334 350.606 24
2 -10 -4 16326 496.246 5
-4 2 10 18409.9 514.213 10
2 -10 4 19950.9 493.089 3
-4 -2 10 19770.3 537.908 10
-2 4 10 18679.4 485.548 10
2 -10 -4 19342.9 485.279 3
10 -4 -2 19973.8 482.919 5
-2 -4 10 20534.7 530.554 10
-10 -2 -4 18682.5 333.546 26
2 4 10 18754.4 479.048 10
2 -4 10 19860 554.898 10
-2 -10 4 18705.7 532.482 9
10 -2 -4 20434.7 466.549 5
4 -10 2 19105.9 505.766 3
4 -10 -2 18941.3 501.439 3
2 -10 -4 17621.7 371.327 9
4 -10 -2 19342.9 490.159 9
2 -4 -10 18549.2 452.102 5
10 -2 4 19373.7 405.54 9
10 -4 2 18704.6 495.203 9
4 -2 -10 19395.8 509.146 5
-10 -4 -4 2438.37 142.269 19
-4 -4 -10 1870.65 147.186 8
-4 -10 4 1912.18 182.155 19
4 -4 -10 2051.84 174.96 8
-4 -10 -4 2387.72 202.673 19
4 -10 -4 1814.41 146.906 18
-4 -10 -4 2040.12 179.906 17
-4 -4 10 2169.38 194.931 4
4 4 -10 2113.27 178.728 8
-4 -10 4 2307.78 205.98 16
4 -10 4 2035.91 116.37 27
-4 -10 -4 1710.13 190.533 15
-10 4 4 1914.97 149.417 7
-10 -4 -4 1986.13 173.121 15
-4 -4 -10 1727.93 166.773 15
-4 10 4 2117.53 170.05 7
-4 4 -10 1948.08 154.076 2
4 -4 -10 2082.69 150.591 14
4 -4 10 1887.07 219.621 4
4 4 -10 2091.87 167.653 2
-4 -4 -10 1945.38 173.768 14
-10 4 -4 1609.39 150.116 13
-10 -4 -4 1848.64 161.498 13
-4 4 10 2017.78 173.022 7
-10 4 -4 1946.91 165.964 6
-10 4 4 1859.41 149.548 13
-10 -4 4 1930.84 157.996 13
-4 -10 4 1771.3 157.138 3
-4 -10 -4 2003.62 165.331 3
-4 10 -4 2019.87 177.245 6
-10 -4 4 1913.46 172.589 12
-4 -10 4 1794.87 122.394 12
-4 4 -10 2092.31 157.947 11
4 -10 -4 1817.22 112.303 27
-10 -4 4 1914.32 112.6 26
-10 -4 -4 1783.68 106.879 26
10 4 4 1828.29 143.137 24
4 -10 -4 1761.05 187.912 5
-4 4 10 1801.33 165.478 10
-4 -4 10 2082.49 173.683 10
10 -4 -4 1932.39 173.228 5
4 4 10 1837.41 155.515 10
4 -10 4 2057.83 166.953 3
4 -10 -4 1830.29 159.875 3
4 -10 4 1990.93 197.388 9
4 -10 -4 1830.52 151.827 9
4 -4 -10 1980.91 172.645 5
10 -4 4 1966.95 157.334 9
-10 -4 4 2637.26 227.308 19
6 0 -10 17149.4 524.241 5
-10 -6 0 16700.6 461.774 19
0 -6 -10 14803.4 472.272 8
-6 0 -10 16863.4 401.625 2
-6 0 10 14908.3 509.296 4
6 0 -10 17606.9 422.372 2
0 -10 -6 14774.6 445.97 18
6 0 -10 17200.6 472.079 8
6 -10 0 16285.2 377.086 17
-6 -10 0 16332.6 402.196 16
0 -6 10 15492.7 396.139 16
0 6 -10 15189 415.875 8
-10 6 0 15508.3 438.982 7
-6 -10 0 14510 496.344 15
0 -10 -6 14054.6 467.948 15
-10 -6 0 14876.8 384.585 15
-6 10 0 15747.1 437.301 7
6 0 10 12610.5 407.643 4
0 -6 10 16870.7 601.327 4
-10 0 -6 16582.1 504.039 15
-6 0 -10 16316.5 520.018 15
0 10 6 16068.8 394.299 7
0 -6 -10 15262.9 467.895 14
0 -10 6 13713.2 473.852 4
-6 0 10 15897.2 373.832 7
-10 6 0 12855.9 342.552 13
-10 -6 0 13367 356.457 13
-10 0 6 15055.3 446.633 13
0 10 -6 17163.3 366.65 6
-10 6 0 15478 373.26 6
-10 -6 0 15198.2 458.712 12
0 6 -10 15609 476.559 2
-10 0 6 14746 398.153 12
0 -10 6 16322.9 405.982 3
0 -10 -6 16216.3 404.986 3
-10 0 -6 16440.1 499.194 11
-10 0 -6 15699.5 275.099 26
10 6 0 16550.1 383.272 25
10 0 6 16933.3 464.966 25
10 -6 0 15515.3 461.815 5
0 -10 -6 13203.3 401.53 5
0 6 10 15711.5 405.262 10
0 -6 10 16437.6 483.19 10
0 -10 6 16563.4 539.615 9
0 -6 -10 14698.3 370.689 5
10 0 -6 17061.8 434.704 5
6 -10 0 15629.8 502.885 9
6 -10 0 15602.9 475.791 3
10 -6 0 15179.2 505.318 9
-2 -6 -10 1709.88 168.415 8
2 -10 6 1809.67 141.647 3
-10 -6 -2 1848.49 161.878 19
2 -6 -10 1504.36 161.591 8
-2 -10 6 1728.15 142.511 19
-6 -10 2 1760.84 190.344 19
-6 -10 -2 1800.52 182.568 19
-6 -2 10 1836.52 176.659 4
-2 -10 -6 1921.64 178.454 19
6 -2 -10 1854.32 157.837 8
2 -10 -6 1641.95 155.72 18
6 2 -10 1768.82 164.995 8
-2 -10 -6 1997.82 188.231 17
-2 -6 10 1704.4 152.203 16
-6 2 -10 1655.51 131.098 2
-6 -10 2 1709.11 160.703 16
6 2 -10 1989.28 148.692 2
-2 6 -10 1515.12 123.974 8
-2 -10 6 1851.82 202.024 16
-6 -10 2 1348.34 168.185 15
2 6 -10 1543.1 152.957 8
2 -10 -6 1285.46 146.253 15
-6 -10 -2 1633.65 186.783 15
-2 -10 -6 1700.83 184.951 15
-10 6 2 1696.23 160.286 7
-2 -6 10 2028.46 194.785 4
-10 -6 -2 1629.39 157.07 15
-6 10 2 1528.51 159.183 7
-2 -6 -10 1566.94 150.407 15
-10 2 6 1757.38 125.686 7
-10 -2 -6 1802.76 176.95 15
-6 -2 -10 1736.89 179.766 15
-10 2 -6 1839.08 178.253 15
-2 10 6 1932.07 163.106 7
-6 2 -10 1903.37 191.236 15
6 -2 10 1454.03 171.223 4
2 -6 -10 1791.83 161.375 14
-2 -6 -10 1761.19 170.863 14
-6 2 10 1725.42 147.358 7
-10 6 -2 1343.16 125.686 13
-10 -6 -2 1438.54 132.905 13
-2 6 10 1823.92 176.683 7
-10 6 2 1367.73 121.958 13
-10 -6 2 1454.13 132.387 13
-10 2 6 1639.42 151.767 13
-10 -2 6 1769.42 161.896 13
-10 6 -2 1881.88 158.954 6
-10 -6 -2 1555.74 159.171 12
-2 6 -10 1843.81 165.208 2
-2 10 -6 1778.63 152.92 6
-2 -10 6 1762.99 142.237 3
2 6 -10 1811.39 167.949 2
-2 -10 -6 1653.55 136.595 3
-10 6 2 1744.73 131.973 6
-10 -6 2 1596.1 164.86 12
-6 -10 2 1637.91 121.256 12
-10 2 6 1486.5 115.874 12
-10 -2 6 1607.85 154.176 12
-6 10 -2 1752.19 179.101 6
-6 2 10 1744.19 125.003 12
-2 -10 6 1655.42 127.905 12
-6 2 -10 1981.07 179.266 11
-10 -2 -6 1634.69 166.548 11
-10 -2 6 1795.08 97.0714 26
-10 -2 -6 1726.34 92.3339 26
10 6 2 1777.34 145.275 25
6 -2 10 1774.79 111.802 25
10 -2 6 1758 155.227 25
2 -10 -6 1850.53 143.99 3
6 -10 -2 1393.86 184.231 5
-6 2 10 1728.27 181.369 10
-6 -2 10 1669.22 171.794 10
2 6 10 1841.48 154.956 24
-2 6 10 1616.27 140.217 10
10 -6 -2 1626.71 174.02 5
2 -10 -6 1498.33 163.31 5
-6 10 2 1723.47 173.089 6
-2 -6 10 1853.3 156.409 10
2 6 10 1721.62 134.341 10
2 -6 10 1531.73 164.136 10
2 -10 6 1860.81 196.997 9
2 -6 -10 1498.35 143.409 5
10 -2 -6 1751.19 159.393 5
6 -10 2 1682.57 160.663 3
6 -10 -2 1667.19 176.326 9
6 -10 -2 1767.62 163.404 3
10 2 -6 1671.45 128.201 5
6 -2 -10 1869.56 179.901 5
10 -6 2 1792.8 184.645 9
-10 -2 6 1978.78 187.841 19
-10 -6 4 16698.2 538.774 19
-10 -6 -4 14149.3 343.743 19
-4 -10 6 14441.3 415.348 19
-6 -10 4 13552.2 461.952 19
4 -6 -10 11790.7 432.423 8
-6 -10 -4 13513.6 427.637 19
6 -4 -10 14407.8 458.614 8
-4 -10 -6 14391.6 430.689 19
-6 -4 10 13908.3 461.073 4
-4 -10 -6 12676.8 436.711 18
4 -10 -6 12348.1 379.208 18
-4 -10 -6 13493.3 423.742 17
-6 -10 4 14008.8 482.919 16
6 4 -10 14068.7 469.198 8
-4 -6 10 14636.2 485.987 4
-4 -10 6 13738.3 512.899 16
4 6 -10 12712.8 449.728 8
-4 -10 -6 11700.8 477.608 15
-10 6 4 13284.9 406.021 7
-10 -6 -4 13720.3 464.524 15
-6 4 -10 12766.1 355.552 2
-4 -6 -10 12520.7 446.195 15
6 4 -10 13561.1 388.999 2
-10 4 6 13607.8 370.993 7
-10 -4 -6 13518.2 483.473 15
-6 10 4 13816 435.703 7
-6 -4 -10 13161.9 474.668 15
-4 10 6 13415.1 422.189 7
4 -6 -10 13467.7 391.18 14
-4 -6 -10 13057.5 454.438 14
-6 -4 -10 13484.2 440.364 14
-6 4 10 12503.1 399.229 7
4 -6 10 12018.4 572.467 4
6 -4 10 11049.4 521.662 4
-10 6 4 11463.8 327.912 13
-10 -6 4 12010.8 351.418 13
-4 6 -10 12036.5 388.274 2
-10 6 -4 13388 415.303 6
4 6 -10 13654.4 439.722 2
-10 4 6 12253.6 376.545 13
-10 -4 6 13432.1 414.011 13
-4 10 -6 14245.2 420.354 6
-6 10 -4 13251.6 430.023 6
-6 -10 4 12477.4 354.366 12
-10 -4 6 12502.3 440.681 12
-4 -10 6 12617.3 364.617 12
-6 4 -10 13727.5 428.477 11
4 -10 6 13412.2 264.035 27
4 -10 -6 13218.5 268.282 27
-6 10 4 13335.5 406.888 6
-10 4 -6 13486.8 480.777 11
10 6 4 11884.1 368.181 24
-6 4 10 12298.3 452.797 10
-4 6 10 13382.4 422.153 10
10 4 6 11433.7 349.967 24
-6 -4 10 14597.5 462.525 10
4 6 10 11959.4 376.586 24
-4 -6 10 14630.8 410.461 10
4 -10 -6 11200.5 454.153 5
4 -10 6 13795.1 378.147 3
4 -10 -6 13354.6 381.228 3
10 -6 -4 12960.4 484.776 5
6 4 10 9838.37 377.772 10
10 -4 -6 13520.5 473.818 5
4 -6 -10 11513 422.066 5
4 -10 6 13696 487.132 9
6 -10 4 13448.6 418.585 3
-4 10 -6 11000.6 370.375 2
4 10 -6 12148.2 421.371 2
6 -10 4 13218.7 477.03 9
6 -10 -4 12591.2 412.337 3
10 -6 4 13089.6 425.223 9
6 -10 -4 12765.5 409.197 9
-10 -4 6 17999.7 567.015 19
-6 -10 6 1328.34 169.804 19
6 -6 -10 1215.25 141.353 8
-6 -10 -6 1274.65 140.848 19
-6 -6 10 1281.91 141.318 4
6 -10 -6 1144.12 120.349 18
-6 -6 -10 1207.88 121.172 18
6 6 -10 1156.12 151.196 8
10 6 -6 839.92 99.9645 8
-6 -10 -6 944.54 156.184 15
-10 -6 -6 1139.98 159.518 15
-6 -6 -10 1061.51 157.18 15
-10 6 6 1195.43 143.371 7
-6 10 6 1052.07 148.952 7
-6 6 -10 1016.23 109.664 2
6 6 -10 1059.82 122.051 2
-6 -6 -10 1139.26 144.97 14
-6 6 10 1063.69 140.816 7
6 -6 10 1055.15 185.204 4
-10 6 -6 1255.37 167.706 6
-10 6 6 955.64 107.768 13
-10 -6 6 1062.48 119.073 13
-6 10 -6 1285.51 163.675 6
-6 -10 6 1103.46 127.739 12
-6 6 -10 1179.82 135.685 11
6 -10 6 1167.32 83.1764 27
6 -10 -6 1124.52 85.1562 27
-6 10 6 1055.48 143.286 6
-10 6 -6 1362.97 176.241 11
-6 6 10 1058.55 134.03 10
-6 -6 10 1086.29 116.418 10
10 6 6 893.319 126.391 24
-6 10 -6 822.049 106.434 2
6 10 -6 944.517 122.772 2
10 -6 -6 987.197 157.028 5
6 -10 6 1053.92 114.233 3
6 -10 -6 1102.95 120.167 3
6 -10 6 1185.97 168.236 9
10 -6 6 1111.29 131.338 9
6 -10 -6 1008.79 122.223 9
-10 -6 6 1659.25 212.903 19
-10 -8 0 1340.44 173.495 19
8 0 -10 1516.75 145.882 8
0 -10 -8 1196.89 147.75 18
0 -8 10 1278.05 142.645 16
0 -10 8 1296.88 174.937 16
0 8 -10 1046.51 121.344 8
-8 -10 0 1144.03 167.119 15
-8 10 0 1203.61 157.464 7
-10 -8 0 1135.8 134.162 15
0 -10 -8 842.61 133.368 15
0 -8 10 1327.49 188.812 4
-10 0 -8 1408.37 177.094 15
-8 0 -10 1442.19 180.11 15
0 -10 8 1044.57 154.547 4
0 -8 -10 1024.4 140.451 14
0 10 8 1246.76 138.288 7
0 8 10 1232.95 152.383 7
-10 0 8 1193.95 147.438 13
-8 -10 0 846.162 103.561 12
-10 -8 0 1077.05 137.621 12
-10 8 0 1274.84 150.942 6
-10 0 8 1186.14 126.866 12
-8 10 0 1269.12 164.546 6
-8 0 10 1149.44 127.679 12
0 8 -10 930.17 140.476 2
8 0 10 1428.9 128.792 25
-10 0 8 1028.17 152 10
-8 0 10 1104.6 154.197 10
0 10 8 793.695 96.9732 24
0 -10 -8 958.242 117.25 5
0 -8 -10 1009.1 111.971 5
0 10 -8 985.331 150.322 2
10 0 -8 1336.86 146.902 5
10 -8 0 1135.33 163.361 9
8 0 -10 1299.48 160.02 5
10 0 8 1414.02 142.051 25
8 2 -10 12231.4 457.865 5
-10 -8 -2 11361.8 387.802 19
-8 -10 2 11702 462.944 19
-8 -10 -2 11758.3 425.002 19
8 -2 -10 12133 394.174 8
-2 -10 -8 11481.5 364.651 19
2 -10 -8 10155.3 383.947 18
-2 -8 -10 10796.5 404.701 18
10 2 -8 10070.2 304.107 8
8 2 -10 11979.5 404.032 8
-2 -8 10 11365.8 412.853 16
-2 -10 8 11452.5 474.335 16
2 -8 10 11114.6 357.896 16
-2 8 -10 8215.66 279.568 8
-8 -10 2 8957.34 371.144 15
-8 -10 -2 9913.06 438.49 15
-2 -10 -8 10405.5 424.826 15
-10 8 2 10985.2 401.592 7
-10 -8 -2 10814 412.979 15
-2 -8 10 11851.4 460.23 4
-8 10 2 10649 401.5 7
-2 -8 -10 9856.29 387.447 15
-2 -10 8 10514.4 379.706 4
-10 2 8 8060.45 248.365 7
-10 -2 -8 10952.9 455.905 15
-8 -2 -10 10993 462.8 15
-10 2 -8 11709.7 473.1 15
-8 2 -10 12182.9 489.559 15
-8 2 10 11107.5 328.195 7
-2 10 8 11139.5 391.045 7
2 -8 10 10237.3 510.101 4
-2 -8 -10 10735.1 432.347 14
8 -2 10 7847.79 359.874 4
2 10 8 10784.7 320.217 7
-8 -2 -10 11874.9 372.019 14
-2 8 10 10936.6 419.778 7
2 -10 8 9128.88 484.746 4
2 8 10 10244.9 372.672 7
10 -2 8 6409.17 309.578 4
-2 10 -8 11578.5 344.439 6
-10 2 8 10231 379.893 13
-10 -2 8 11640.4 417.272 13
-10 -8 -2 8846.25 345.087 12
-10 8 -2 11431.3 382.395 6
-10 2 -8 11267.5 448.324 11
-8 -10 2 9312.83 319.572 12
-10 -8 2 9857.51 380.599 12
-10 8 2 10458.6 320.708 6
-2 8 -10 9145.58 374.749 2
-10 -2 8 10565.1 383.207 12
2 8 -10 9620.65 407.309 2
-8 10 2 10629.5 369.136 6
-8 -2 10 10354.3 387.682 12
-8 2 -10 11528.3 438.144 11
10 2 8 11868.5 389.465 25
-10 -2 8 10276.2 413.125 10
10 -2 8 10274.3 334.236 25
8 -10 -2 9578.95 465.575 5
-8 2 10 9649.03 425.032 10
-8 -2 10 10477.5 424.826 10
10 -8 -2 10738.2 461.873 5
2 10 8 9052.25 302.163 24
2 8 10 9073.84 300.8 24
2 -10 -8 9078.36 374.242 5
-2 10 -8 9632.91 387.033 2
2 10 -8 9861.44 417.258 2
2 -8 10 10802.5 358.89 10
2 -8 -10 9805.69 371.048 5
2 -10 8 11384.5 449.962 9
10 -2 -8 11848.9 435.159 5
8 -10 2 10682.5 447.91 9
8 -2 -10 11667.6 465.491 5
10 -8 2 10945.3 442.567 9
8 -10 -2 10309.8 420.452 9
10 2 -8 11573 376.948 5
8 -10 2 10769.6 400.705 3
8 -10 -2 10544.6 403.433 3
-10 -8 4 1348.57 204.781 19
-10 -8 -4 980.491 127.402 19
-8 -10 4 1082.57 181.588 19
-8 -10 -4 956.044 142.541 19
8 -4 -10 1114.4 130.313 8
-4 -10 -8 1004.97 117.436 19
-4 -10 -8 987.208 143.288 18
4 -10 -8 814.627 122.62 18
-4 -8 -10 1055.27 138.236 18
-4 -10 -8 1020.63 133.714 17
10 4 -8 862.592 102.259 8
8 4 -10 1011.3 132.265 8
-4 -8 10 1047.29 135.67 4
-4 -10 8 1317.85 175.908 16
-8 -10 -4 873.916 161.297 15
-4 -10 -8 811.459 146.865 15
-10 -8 -4 1091.08 158.303 15
-10 8 4 980.778 147.202 7
-4 -8 -10 983.906 146.179 15
-8 10 4 954.439 152.276 7
-10 -4 -8 886.517 154.988 15
-8 -4 -10 859.04 152.647 15
-10 4 8 956.172 118.335 7
-4 10 8 1035.32 152.238 7
-8 4 10 825.884 126.012 7
-10 4 -8 1142.18 168.126 15
-8 -4 -10 1044.8 126.321 14
-4 8 10 1055.27 151.183 7
8 -4 10 732.196 158.195 4
4 8 10 900.286 116.66 7
10 -4 8 650.44 144.788 4
-4 10 -8 1016.81 144.234 6
4 -10 8 563.8 160.206 4
-10 8 -4 939.132 148.699 6
-10 4 8 818.013 116.469 13
-10 -4 8 938.401 129.681 13
-4 8 -10 777.932 114.857 2
4 8 -10 894.061 128.626 2
-10 -8 4 870.131 136.248 12
-8 -10 4 908.007 119.124 12
-10 8 4 385.673 71.1543 6
-10 -4 8 975.08 143.098 12
-8 -4 10 914.99 146.425 12
-4 -10 8 910.182 126.739 12
-8 10 4 1135.5 146.314 6
-8 4 -10 1067.25 149.624 11
-10 4 -8 1005.87 162.905 11
-8 4 10 805.25 139.427 10
-4 8 10 848.962 103.486 10
-4 10 -8 765.771 118.023 2
-8 -4 10 979.607 131.171 10
10 8 4 618.443 109.52 24
4 10 -8 933.731 139.37 2
4 8 10 933.573 128.27 24
8 -10 -4 931.939 164.398 5
4 10 8 648.297 111.745 24
10 -8 -4 773.34 153.709 5
4 -10 -8 820.234 144.898 5
4 -8 -10 774.771 136.874 5
4 -8 10 797.394 117.353 10
10 -4 -8 950.596 151.755 5
4 -10 8 988.909 154.685 9
8 -4 -10 988.978 156.853 5
8 -10 4 903.764 158.742 9
8 -10 4 1053.74 128.347 3
10 -8 4 929.022 154.27 9
8 -10 -4 921.963 121.481 3
8 -10 -4 809.458 141.521 9
-10 -4 8 1180.83 162.802 19
10 4 -8 921.002 113.286 5
10 -8 -4 970.426 163.292 9
-1 -11 1 9141.45 364.625 19
-1 -11 -1 8797.43 373.319 19
1 -11 1 9051.3 352.442 19
-1 -1 -11 9048.41 313.494 8
1 -1 -11 8717.89 328.89 8
1 -1 -11 7945.17 329.86 2
-1 1 -11 8971.77 306.158 8
1 -11 1 8091.16 324.985 17
1 1 -11 8748.53 323.298 8
-1 -11 -1 8281.09 347.491 17
1 -11 -1 8528.19 341.753 17
-1 1 11 8307.73 360.421 4
1 1 11 8358.49 353.289 4
-1 -1 11 8526.99 383.551 4
-1 -11 -1 7003.16 386.115 15
1 1 -11 8316.46 329.148 2
1 -1 11 8068.25 367.273 4
-1 -1 -11 8938.39 291.4 15
-1 1 -11 8768.79 293.548 15
-11 1 -1 7939.72 322.13 13
-11 1 1 8055.87 318.531 13
-11 1 -1 7497.84 297.252 12
-11 -1 -1 7724.95 317.603 12
-11 1 1 7784.58 287.627 12
-11 -1 1 8090.36 317.781 12
-1 11 -1 8503.3 302.533 6
1 11 -1 8336.19 274.392 6
-11 -1 -1 7711.6 260.479 11
-1 -11 1 9077.53 378.958 3
-1 11 1 9059.87 325.587 6
-11 1 -1 8572.65 311.924 11
1 11 1 8632.96 302.314 6
11 1 1 8024.55 325.784 25
11 -1 1 7883.79 327.119 25
1 -11 1 8550.77 360.005 3
-1 1 11 8433.7 363.166 10
1 1 11 8689.53 374.314 10
1 -11 1 8523.84 255.031 27
-1 -11 1 8243.11 332.452 9
-1 -11 -1 8240.8 288.224 9
1 -11 1 8416.8 351.981 9
1 -11 -1 8280.53 313.869 9
-11 -1 -1 9722.94 289.536 19
-11 -1 1 9341.39 319.463 19
11 -1 3 7542.74 270.627 9
3 -1 -11 7993.37 334.456 5
-1 -3 -11 7990.6 323.679 8
-3 -11 1 8101.88 364.454 19
-1 -11 3 8160.3 329.462 19
-3 -1 -11 8704.64 285.897 8
-3 -11 -1 8407.41 379.718 19
-3 -1 -11 7398.29 312.747 2
1 -3 -11 7492.42 321.871 8
1 -11 3 7901.63 296.978 19
3 -1 -11 7682.14 321.739 2
-1 3 11 7956.16 339.072 4
-3 1 11 7656.08 361.617 4
-3 1 -11 8367.8 266.976 8
3 -1 -11 8102.61 327.286 8
1 3 11 7493.56 307.44 4
-3 -11 -1 7730.52 346.898 17
3 -11 1 7303.02 292.341 17
-1 3 -11 8067.76 288.983 8
3 -11 -1 7536.72 314.605 17
1 -11 -3 8026.32 353.184 17
1 3 -11 7819.87 310.089 8
-3 1 -11 7982.18 321.426 2
3 1 -11 8141.92 332.147 2
1 -11 -3 5393.66 341.438 15
-3 -11 -1 7046.8 380.188 15
-1 -11 -3 6407.14 363.728 15
-3 11 -1 7377.47 255.826 7
3 1 11 7150.86 312.27 4
-3 11 1 7667.84 268.793 7
3 -1 11 7670.68 367.082 4
1 -3 11 8133.66 403.509 4
-1 11 3 7993.56 253.375 7
-1 -3 -11 7826.04 280.664 15
-11 -1 -3 7794.11 280.859 15
-11 1 -3 7308.86 268.728 15
-3 -1 -11 7691.72 316.718 15
1 3 -11 7550.32 324.842 2
-3 1 -11 8246.23 329.163 15
-11 1 -3 6749.43 307.199 13
-11 3 -1 6722.08 292.61 13
-11 -3 -1 6837.73 301.333 13
-11 3 1 6776.57 288.756 13
-11 -3 1 7070.87 303.861 13
-11 3 -1 6617.21 221.346 6
-11 1 3 7324.42 308.567 13
-11 3 1 5753.51 229.037 12
-11 -3 -1 7054.02 319.661 12
-11 1 3 6933.59 268.126 12
-11 -3 1 7125.89 316.514 12
-11 -1 3 6856.86 291.475 12
-3 -11 1 7692.47 347.16 3
-1 11 -3 7616.7 281.978 6
1 11 -3 7893.24 250.624 6
-3 11 -1 7791.81 312.569 6
3 -11 1 7412.28 239.641 27
-1 -11 -3 7641.34 339.015 3
-11 -1 -3 6982.59 284.926 11
-3 11 1 7885.21 320.243 6
-11 -3 1 7509.22 231.301 26
-11 1 -3 7748.6 326.895 11
11 3 1 8400.35 324.115 25
11 1 3 8261.31 338.367 25
3 11 1 7952.93 267.9 6
11 -1 3 7277.52 317.225 25
11 3 -1 7445.56 281.273 25
1 -11 3 7900.14 341.655 3
1 -11 -3 7709.77 338.094 3
-3 1 11 7202.8 346.337 10
-1 3 11 7495.25 334.76 10
-1 -3 11 8015.07 363.436 10
1 3 11 7386.42 330.133 10
-1 -11 3 7930.47 346.219 3
3 -11 1 7412.2 339.547 3
1 -3 11 8465.56 384.105 10
3 1 11 7465.45 357.128 10
3 -1 11 7835.4 376.02 10
-1 -11 3 7776.11 359.588 9
1 -11 3 7744.9 364.064 9
1 -11 -3 7362.5 255.534 9
3 -11 1 7480.45 345.891 9
3 -11 -1 7599.74 321.315 9
-1 -3 -11 7422.3 246.474 5
1 -3 -11 7408.64 283.033 5
-11 -1 3 8473.81 331.33 19
1 -3 -11 7061.47 322.424 2
-11 -3 -1 9993.77 336.353 19
-11 -3 1 9873.51 372.421 19
-3 -3 -11 7066.81 287.785 8
-3 3 11 6652.25 338.042 4
-3 -11 3 7457.31 332.128 19
-3 -11 -3 7735.42 355.61 19
3 -3 -11 7205.63 323.374 8
3 -11 3 7229.52 270.418 19
3 -11 -3 6730.56 223.012 27
-3 3 -11 7300.08 245.57 8
3 3 11 6307.76 258.41 4
-3 -11 -3 7274.37 344.794 17
3 -11 -3 7344.77 331.9 17
-3 -3 11 7527.53 373.902 4
-3 -11 -3 6394.46 355.15 15
-11 3 3 6479.14 240.807 7
-11 -3 -3 7081.68 285.649 15
-3 11 3 7365.5 279.887 7
-3 3 -11 7275.95 309.368 2
3 3 -11 7247.02 319.129 2
-3 -3 -11 6726.67 297.133 15
3 -3 11 6777.01 379.961 4
-11 3 -3 6745.04 258.118 15
-11 3 -3 6305.16 293.591 13
-11 -3 -3 6220.8 295.502 13
-11 3 -3 6206.48 249.989 6
-11 3 3 6520.09 285.667 13
-11 -3 3 6613.92 295.879 13
-11 -3 3 6097.98 297.358 12
-3 -11 3 7236.19 333.652 3
-3 -11 -3 7316.78 330.269 3
-3 11 -3 6944.18 296.292 6
-11 -3 -3 5982.62 246.219 11
3 -11 3 7024.71 227.148 27
-11 -3 3 7190.88 220.856 26
-11 -3 -3 6632.75 209.563 26
-3 11 3 7228.79 315.511 6
11 3 3 7498.8 311.716 25
-11 3 -3 7536.08 344.447 11
3 -11 -3 5742.78 329.005 5
-3 3 11 6811.43 329.587 10
-3 -3 11 7304.5 346.884 10
3 -11 3 6900.06 320.492 3
11 -3 -3 6741.56 274.49 5
3 -11 -3 6801.28 318.941 3
3 3 11 6636.08 320.308 10
3 -3 11 6940.61 355.92 10
3 -11 -3 6690.18 275.119 9
3 -3 -11 6913.92 309.504 5
11 -3 3 6940.43 293.705 9
-11 -3 -3 9231.24 278.476 19
-11 -3 3 9391.99 395.16 19
-11 -5 1 7998.38 352.005 19
-11 -5 -1 7614.31 314.758 19
-5 -1 -11 6475.06 282.722 2
5 -1 -11 6785.28 295.733 2
-1 -5 -11 6013.47 300.728 8
1 5 11 6068.65 250.654 4
-1 -11 5 6907.89 270.849 19
-5 -11 1 6747.56 349.625 19
-5 1 11 6333.54 344.563 4
-5 -1 11 6756.96 354.126 4
-1 -11 -5 6788.41 338.522 19
-1 -11 -5 5617.42 295.541 18
1 -11 -5 6006.52 294.641 18
5 -1 -11 6572.94 306.042 8
-5 1 -11 6915.82 285.697 2
5 1 -11 6450.51 306.921 8
5 -11 1 6039.73 247.039 17
5 1 -11 7255.94 303.681 2
5 -11 -1 6465.51 279.154 17
-1 -11 -5 6862.82 342.766 17
-1 5 -11 5868.03 256.148 8
1 5 -11 6224 290.27 8
-5 -11 -1 6574.51 248.427 16
-5 -11 1 6664.92 300.645 16
-5 -11 1 5602.9 337.38 15
1 -11 -5 4663.29 295.848 15
-5 11 -1 6044.4 271.936 7
-11 5 1 6291.97 276.936 7
-5 -11 -1 5367.58 345.769 15
-1 -11 -5 4989.12 310.918 15
5 1 11 5713.34 260.283 4
-5 11 1 6351.14 282.471 7
-11 -5 -1 5880.44 239.183 15
-1 -5 11 6388.03 365.555 4
-1 -5 -11 6289.67 261.091 15
5 -1 11 5901.11 318.03 4
-11 -1 -5 6484 302.947 15
-1 11 5 6407.85 251.058 7
-11 1 -5 6374.22 301.199 15
-5 -1 -11 6597.11 330.695 15
-5 1 -11 6732.34 339.116 15
1 -5 -11 6554.97 309.292 14
-1 -5 -11 6058.72 309.735 14
-11 1 -5 5117.68 282.5 13
1 5 -11 6437.57 315.897 2
-5 1 11 6098.4 267.412 7
-11 5 -1 5146.68 246.554 13
-11 -5 -1 5423.06 257.401 13
-5 -1 11 6289.17 242.333 7
-11 5 1 5474.84 252.398 13
-11 -5 1 5623.64 262.96 13
1 -11 5 4746.21 279.915 4
-11 1 5 6174.03 293.996 13
-11 5 -1 6345.3 240.944 6
-5 -11 1 6454.69 332.413 3
-11 -5 -1 5446.88 292.333 12
-1 11 -5 6602.53 258.803 6
-11 1 5 5529.28 238.416 12
-11 -1 5 5896.38 272.047 12
-1 -11 5 6406.06 289.177 3
-5 11 -1 6061.22 298.956 6
-1 -11 -5 6428.66 287.457 3
-11 -1 -5 6279.76 302.17 11
5 -11 1 6178.72 220.761 27
-11 -1 5 6664.77 201.955 26
-11 1 -5 6527.16 325.425 11
-11 -1 -5 6433.81 191.723 26
1 -11 5 6737.03 299.242 3
-11 -5 1 6118.91 210.317 26
11 5 1 6512.2 264.648 25
1 -11 -5 6696.15 297.852 3
11 1 5 6326.43 293.918 25
11 -1 5 6335.67 294.031 25
1 -11 -5 4928.68 280.597 5
11 -5 -1 6196.77 282.021 5
-5 1 11 5823.55 321.03 10
-5 -1 11 6096.72 325.978 10
-1 5 11 6137.23 287.01 10
1 5 11 6037.68 278.145 10
-1 -5 11 6920.34 326.747 10
1 -5 11 6948.46 342.224 10
11 -1 -5 6671.12 270.054 5
5 -11 1 6002.35 306.852 3
-1 -5 -11 5845.93 219.917 5
1 -5 -11 6010.76 262.349 5
5 -11 1 6326.93 331.69 9
5 -11 -1 6063.16 306.817 9
-11 -1 5 7191.49 333.078 19
11 -5 1 6167.3 326.91 9
-11 -5 -3 7043.83 269.014 19
-5 -3 -11 6237.2 235.587 8
-3 -5 -11 5682.44 284.836 8
-3 -11 5 5811.32 277.348 19
-5 -11 3 5881.78 321.593 19
3 -5 -11 5327.08 300.273 8
-5 -11 -3 5882.47 320.581 19
-3 -11 -5 6141.73 311.506 19
5 -3 -11 6368.62 309.719 8
3 -11 -5 5207.18 264.502 18
-5 -3 11 5784.5 326.298 4
-3 5 -11 4937.23 199.476 8
-3 -11 -5 5917.64 308.95 17
5 3 -11 5748.11 303.709 8
-5 -11 3 6451.06 332.302 16
-3 -5 11 6251.27 348.002 4
-5 3 -11 5679.29 260.223 2
-3 -11 -5 4983.57 328.319 15
5 3 -11 6259.39 287.189 2
-11 5 3 5577 259.392 7
-11 3 5 5456.74 221.862 7
-11 -5 -3 5647.55 275.314 15
-5 11 3 5769.58 277.789 7
-3 -5 -11 5391.68 280.583 15
-11 -3 -5 6031.61 305.108 15
-5 -3 -11 5642.11 303.616 15
-3 11 5 5871.08 270.547 7
5 -3 11 5175.17 330.317 4
3 -5 11 5859.37 374.697 4
-11 3 -5 5942.73 289.345 15
-11 5 -3 5207.39 239.669 15
3 -5 -11 5914.51 277.449 14
5 -3 -11 6426.19 249.477 14
-3 5 -11 5908.32 287.056 2
3 5 -11 6085.01 304.079 2
-11 3 -5 4698.31 266.453 13
-11 -3 -5 4995.86 275.672 13
-11 5 -3 4479.18 235.486 13
-11 -5 -3 4728.78 247.127 13
-5 3 11 5678.31 282.59 7
-11 5 3 4841.33 237.938 13
-11 -5 3 5240.4 255.051 13
-11 5 -3 5550.13 254.678 6
-11 3 5 5195.34 262.953 13
-11 -3 5 5171.36 270.207 13
-3 -11 5 6081.45 285.316 3
-3 -11 -5 5970.1 278.054 3
-3 11 -5 5616.83 268.424 6
-11 -3 5 5237.02 284.619 12
-5 11 -3 5655.13 290.196 6
3 -11 5 5892.81 195.39 27
3 -11 -5 5818.99 197.467 27
5 -11 3 5674.22 205.967 27
5 -11 -3 5536.48 205.151 27
-11 -3 5 5861.88 185.535 26
-11 -3 -5 5467.63 176.094 26
11 5 3 6241.36 272.343 25
11 3 5 5966.59 284.59 25
3 -11 -5 4638.92 292.912 5
-5 3 11 5311.22 301.355 10
3 -11 5 6053.13 281.563 3
-3 5 11 5529.66 283.906 10
-5 -3 11 6264.95 323.285 10
3 -11 -5 5841.31 278.87 3
11 -5 -3 5573.38 296.211 5
-3 -5 11 6329.82 306.692 10
3 5 11 5235.67 255.822 10
11 -3 -5 5806.48 286.252 5
5 3 11 5138.34 288.717 10
3 -5 11 5675.29 323.252 10
5 -11 3 5579.91 290.089 3
5 -11 -3 5906.18 301.841 3
3 -11 5 5956.75 340.329 9
3 -5 -11 5521.28 286.369 5
5 -11 -3 5606.46 280.023 9
11 -5 3 5959.85 304.47 9
-11 -3 5 6956.28 326.818 19
-5 -11 5 5095.7 285.411 19
5 -5 -11 4897.09 283.247 8
-5 -11 -5 4818.32 272.301 19
-5 -5 11 5132.08 299.385 4
-5 -11 -5 4723.01 261.418 17
5 5 -11 4940.77 288.092 8
-5 -11 5 4865.4 311.069 16
-5 -11 -5 4263.79 306.686 15
-11 5 5 4746.59 236.161 7
-11 -5 -5 4742.91 281.88 15
-5 -5 -11 4692.56 289.682 15
-5 11 5 4897.78 267.536 7
-5 5 -11 4356.84 232.172 2
5 5 -11 4637.05 254.529 2
-11 5 -5 4606.43 261.547 15
5 -5 11 3856.07 311.359 4
-5 -5 -11 4912.67 286.443 14
-5 5 11 4966.88 281.152 7
-11 5 -5 4515.89 262.661 6
-11 5 5 4119.24 220.041 13
-11 -5 5 4626 245.181 13
-5 11 -5 4889.61 271.374 6
-11 -5 5 4235.94 267.462 12
-5 -11 5 4129.01 192.115 12
-5 5 -11 5101.11 242.601 11
5 -11 5 4901.61 178.597 27
5 -11 -5 4685.45 178.111 27
-5 11 5 4843.17 264.167 6
11 5 5 4715.56 242.721 25
-5 5 11 4540.71 271.718 10
5 -11 -5 4077.76 295.206 5
-5 -5 11 5060.24 267.438 10
11 -5 -5 4753.57 286.335 5
5 -11 5 4839.47 250.783 3
5 -11 -5 4552.85 250.298 3
5 5 11 4276.1 232.64 10
5 -11 5 5134.18 318.63 9
5 -5 -11 4881.2 293.693 5
5 -11 -5 4190.32 214.284 9
11 -5 5 4845.35 242.29 9
-5 11 -5 3599.89 211.516 2
5 11 -5 4371.53 249.804 2
-11 -5 5 7129.06 378.493 19
7 1 -11 5165.72 314.55 5
-11 -7 1 6058.96 330.17 19
-11 -7 -1 5665.84 284.913 19
-7 1 -11 4985.22 214.752 2
-7 -1 11 4843.61 303.486 4
-7 -11 1 5015.6 313.491 19
-7 -11 -1 5012.1 308.158 19
-1 -11 -7 5088.92 284.743 19
7 -1 -11 5526.05 283.974 8
1 -11 -7 4395.07 266.641 18
7 1 -11 5217.32 284.833 8
7 -11 -1 4697.97 217.102 17
-1 -11 -7 5365.71 309.275 17
-1 -7 11 4808.88 239.779 16
-1 7 -11 3958.18 211.01 8
1 7 -11 4137.54 239.489 8
-1 -11 7 5022.03 328.35 16
-7 -11 1 3882.61 276.466 15
1 -11 -7 2764.17 239.553 15
-11 7 1 4543.9 263.359 7
-7 -11 -1 4194.63 307.19 15
-1 -11 -7 3549.84 265.24 15
-7 11 1 4445.04 263.25 7
-11 -7 -1 4440.39 233.919 15
-1 -7 11 5195.94 333.902 4
7 -1 11 3950.43 244.492 4
1 -7 11 4969.95 347.895 4
-11 -1 -7 4995.39 296.116 15
-1 -11 7 2507.85 183.927 4
-7 -1 -11 4780.06 307.276 15
-11 1 -7 5215.8 303.016 15
-7 1 -11 5179.42 318.935 15
-1 11 7 5103.81 247.723 7
1 11 7 4862.02 213.262 7
1 -7 -11 4744.13 276.268 14
-1 -7 -11 4555.95 282.535 14
-7 1 11 4606.02 212.248 7
1 -11 7 3765.92 275.359 4
-11 -7 -1 3105.96 174.397 13
-1 7 11 4614.46 282.701 7
-11 -7 1 3288.62 178.446 13
1 7 11 4235.87 263.063 7
-11 1 7 4314.91 256.258 13
-1 11 -7 5065.82 222.359 6
1 7 -11 4283.63 271.21 2
-11 7 -1 4828.15 234.448 6
-11 -7 -1 3832.63 249.637 12
-11 7 1 4898.21 213.986 6
-1 -11 -7 4641.71 210.135 3
-11 -7 1 4231.65 265.451 12
-11 1 7 3929.82 200.349 12
-11 -1 7 4197.62 236.275 12
-7 11 1 4555.41 269.673 6
-7 1 11 4497.93 215.972 12
1 -11 -7 4918.44 220.021 3
-7 -1 11 4543.35 253.007 12
-11 -1 -7 4569.72 280.826 11
11 1 7 5254.74 263.278 25
11 -1 7 4628.62 243.504 25
1 11 7 3505.22 186.863 24
1 -11 -7 3631.35 234.768 5
-7 -1 11 4556.74 296.582 10
-1 7 11 4379.04 214.504 10
-1 -7 11 5304.22 255.948 10
1 -7 11 4634.97 258.735 10
1 -7 -11 4404.3 233.123 5
1 -11 7 4825.19 316.681 9
1 11 -7 4089.69 273.083 2
11 -1 -7 4990.89 258.082 5
11 1 -7 5058.65 235.055 5
7 -11 1 4437.56 268.529 3
7 -11 -1 4520.21 288.951 9
7 -1 -11 5185.83 310.429 5
11 -7 1 4685.87 309.347 9
11 -7 -1 4514.13 306.88 9
-11 -7 -3 5093.93 249.698 19
3 -7 -11 3761.53 274.796 8
-7 -11 3 4547.81 304.873 19
-7 -3 11 4851.41 286.537 4
-7 -11 -3 4785.35 288.29 19
7 -3 -11 5016.01 274.883 8
-3 -11 -7 4753.35 265.076 19
-3 -11 -7 3823.92 260.006 18
3 -11 -7 3900.92 241.175 18
-7 3 -11 1704.22 125.145 2
-3 -7 -11 4556.58 260.9 18
7 3 -11 4432.35 214.513 2
7 3 -11 4450.7 269.306 8
-3 -11 -7 4241.36 260.745 17
7 -11 -3 4518.28 240.781 17
-3 -11 7 4348.16 307.689 16
-3 -7 11 4587.5 291.814 4
-7 -11 -3 3679.51 290.06 15
-3 -11 -7 3752.53 278.425 15
-11 7 3 4041.31 248.972 7
-11 -7 -3 4253.09 257.752 15
-7 11 3 4198.5 260.287 7
-3 -7 -11 3885.69 248.721 15
-11 3 7 2105.53 134.778 7
-11 -3 -7 4198.4 284.717 15
-7 -3 -11 4198.02 291.384 15
-3 11 7 4463.27 251.148 7
-11 3 -7 4552.59 284.07 15
7 -3 11 3664.18 270.441 4
-7 3 -11 4979.33 317.022 15
3 -7 -11 4463.99 251.955 14
-7 3 11 4149.75 226.096 7
-7 -3 -11 4521.01 254.809 14
-3 7 11 4052.48 268.211 7
-11 -7 3 2165.74 144.263 13
3 -11 7 3164.59 274.088 4
-3 7 -11 3761.7 240.13 2
3 7 -11 3939.67 256.958 2
-11 7 -3 4606.24 247.096 6
-11 3 7 3917.2 236.874 13
-11 -3 7 4243.41 254.527 13
-3 11 -7 4561.14 238.88 6
-11 -7 3 3946.67 263.556 12
-7 11 -3 4365.38 272.06 6
-7 -11 3 988.826 95.8469 12
-11 -3 7 3828.77 249.007 12
-3 -11 7 1946.12 134.454 12
-7 -3 11 4430.67 275.022 12
-7 3 -11 4795.99 273.962 11
-7 11 3 4284.83 253.74 6
7 -11 3 4048.83 177.187 27
11 7 3 4131.67 203.576 25
3 -11 -7 4383.92 210.197 3
7 -11 -3 3224.83 287.432 5
3 11 7 3032.06 191.447 24
-7 3 11 4056.93 278.017 10
-7 -3 11 4514.83 278.539 10
-3 7 11 4012.65 221.107 10
11 -7 -3 4183.31 283.309 5
3 -11 -7 3337.79 248.587 5
3 -7 11 4194.41 258.642 10
-3 11 -7 3350.68 231.701 2
11 -3 -7 4564.23 275.445 5
3 -7 -11 3835.08 248.346 5
3 11 -7 3816.66 259.213 2
3 -11 7 4431.71 299.836 9
7 -11 3 4332.78 257.128 3
7 -11 -3 4224.81 259.225 3
7 -11 3 4306.95 294.035 9
7 -3 -11 4384.13 294.726 5
7 -11 -3 4248.78 262.202 9
11 -7 3 4262.75 273.233 9
-11 -3 7 5001.29 296.783 19
0 -12 0 15866.5 509.349 19
0 0 -12 15764.6 444.468 8
0 -12 0 13919.9 469.01 17
0 0 -12 14495.7 470.077 2
0 0 12 15240.5 526.161 4
-12 0 0 12835 439.723 13
-12 0 0 12332.7 406.846 12
0 12 0 15402.8 417.143 6
-12 0 0 12729.7 345.341 11
0 -12 0 15359.3 524.301 3
0 0 12 14782.5 519.455 10
0 -12 0 14520 442.368 9
0 -2 -12 1529.25 163.07 2
-2 -12 0 1718.68 201.899 19
0 -12 2 1830.93 185.019 19
0 -2 -12 1695.48 158.095 8
-2 0 -12 1743.36 141.314 8
0 -12 -2 1661.27 196.767 19
2 -12 0 1777.04 188.103 19
2 0 -12 1561.52 154.092 8
-2 0 -12 1506.81 156.111 2
0 2 12 1618.67 164.525 4
2 0 -12 1490.59 155.86 2
-2 0 12 1658.56 181.488 4
0 2 -12 1757.98 151.96 8
2 -12 0 1631.71 167.509 17
0 -12 -2 1585.92 179.561 17
-2 -12 0 1142.18 184.668 15
0 -12 -2 1199.24 188.601 15
2 0 12 1576.2 173.541 4
0 -2 12 1639.6 189.595 4
0 2 -12 1660.94 163.235 2
-2 0 -12 1673.05 151.569 15
-12 0 -2 1350.91 156.479 13
-12 2 0 1299.2 154.842 13
-12 -2 0 1421.8 161.583 13
-12 0 2 1502.25 162.661 13
-12 -2 0 1403.19 159.033 12
-12 0 2 1385.11 141.666 12
-2 -12 0 1840.2 190.632 3
0 12 -2 1576.41 150.455 6
-2 12 0 1585.45 170.925 6
2 -12 0 1514.2 122.427 27
-12 -2 0 1657.44 118.528 26
2 12 0 1651.82 146.289 6
-12 0 -2 1396.52 142.638 11
0 -12 2 1564.86 179.11 3
0 -12 -2 1631.23 178.451 3
0 12 2 1677.5 169.298 6
12 0 2 1499.33 155.834 25
12 2 0 1397.13 144.007 25
2 -12 0 1586.85 178.154 3
-2 0 12 1565.8 179.385 10
0 2 12 1747.12 180.955 10
0 -2 12 1926.98 196.372 10
2 0 12 1654.69 186.172 10
0 -12 2 1592.69 179.717 9
0 -12 -2 1417.08 132.456 9
2 -12 0 1458.54 170.588 9
-12 -2 0 1780.69 160.559 19
0 -2 -12 1661.38 138.325 5
-2 -2 -12 13100.7 449.907 2
12 -2 2 13221 420.663 9
2 -2 -12 13096.4 455.198 2
-2 -2 -12 15165.8 441.834 8
-2 -12 2 14425.3 482.648 19
-2 -12 -2 13735.9 493.774 19
2 -12 2 13882.4 421.532 19
-2 2 12 13439.5 486.19 4
-2 2 -12 14473.1 384.419 8
2 2 -12 14021.5 444.449 8
2 2 12 12224 416.113 4
2 -12 -2 13425.3 456.655 17
-2 -2 12 13893.4 531.599 4
-2 -12 -2 10775.3 504.723 15
-2 2 -12 14113.8 458.396 2
2 2 -12 14077.8 468.998 2
2 -2 12 12886 508.34 4
-2 12 2 13486.6 340.141 7
-2 -2 -12 13336.4 396.275 15
-2 2 -12 14292.2 423.68 15
-12 2 -2 10953.7 403.258 13
-12 -2 -2 11389.1 417.248 13
-12 2 2 11650.4 410.357 13
-12 -2 2 12587.8 431.703 13
-12 2 2 9797.38 323.637 12
-12 -2 2 11610.8 414.042 12
-2 -12 2 13881.7 493.595 3
-2 -12 -2 13602 480.298 3
-2 12 -2 13465.6 408.616 6
-12 -2 -2 11431.9 328.612 11
2 -12 2 13737.3 341.96 27
2 -12 -2 13288.5 333.547 27
-12 -2 2 14244.6 324.216 26
-12 -2 -2 13443.6 308.91 26
-2 12 2 13533 434.35 6
-12 2 -2 13487.6 442.314 11
2 12 2 14121.5 398.33 6
12 2 2 13761 431.597 25
2 -12 2 13574.4 481.724 3
2 -12 -2 13558.8 479.73 3
-2 2 12 13541.9 491.257 10
-2 -2 12 14481.7 519.09 10
2 2 12 13047.6 485.286 10
2 -12 2 13858.1 491.603 9
2 -12 -2 12784.4 391.861 9
-2 -2 -12 13252.9 317.194 5
-12 -2 -2 15084.9 348.801 19
-12 -2 2 15180.2 442.787 19
2 -2 -12 13496.4 428.689 5
0 -4 -12 12096.8 450.496 8
0 4 12 11747.4 401.476 4
-4 0 -12 14741 352.979 8
0 -12 4 12544.1 379.456 19
-4 -12 0 12934.5 491.253 19
-4 0 -12 12884.6 421.645 2
4 0 -12 13333.6 441.423 2
-4 0 12 12598 497.222 4
4 0 -12 13090.3 449.069 8
4 -12 0 12017 391.608 17
0 4 -12 12307.5 393.15 8
-4 -12 0 12638.5 404.004 16
0 -12 -4 9109.29 441.06 15
-4 12 0 11387.2 352.11 7
4 0 12 11709.4 425.72 4
-12 0 -4 12036.5 374.124 15
0 4 -12 12650.9 454.648 2
-4 0 -12 12258.9 429.426 15
0 -4 -12 11996.6 440.753 14
-12 0 -4 10531.3 412.99 13
-12 4 0 9867.68 363.144 13
-12 -4 0 10599.6 388.814 13
-12 0 4 11356.7 415.06 13
-4 -12 0 13243.1 486.6 3
-12 -4 0 10324.1 411.576 12
-12 0 4 10315 358.991 12
0 12 -4 12489.5 338.096 6
-4 12 0 12388.8 424.478 6
0 -12 4 12707.4 445.852 3
0 -12 -4 13148.4 448.475 3
4 -12 0 11965.6 322.597 27
-12 0 -4 11836.5 414.601 11
-12 -4 0 12228.1 297.325 26
12 0 4 12184.9 414.011 25
12 4 0 11561.1 352.878 25
0 4 12 12408.3 437.81 10
0 -4 12 13247.2 491.915 10
4 -12 0 12445 464.754 3
4 0 12 11390.1 488.689 10
0 -12 4 12561.7 490.531 9
4 -12 0 12133.6 444.5 9
0 -4 -12 12514.3 360.297 5
-12 -4 0 16071.6 474.599 19
-2 4 12 1334.12 153.264 4
-4 -2 -12 1425.33 124.027 8
-2 -4 -12 1391.63 145.001 8
-4 2 12 1459.42 172.246 4
-2 -12 4 1344.91 161.291 19
-4 -12 2 1387.82 187.935 19
2 4 12 1200.76 121.186 4
2 -12 4 1429.86 134.324 19
-2 -12 -4 1307.59 179.307 19
4 -2 -12 1439.32 157.212 8
4 -12 2 1265.22 144.473 19
-4 -2 12 1274.62 168.23 4
-2 4 -12 1177.22 114.972 8
4 2 -12 1372.71 153.153 8
-2 -12 -4 1294.01 175.09 17
4 -12 -2 1334.35 158.544 17
2 4 -12 1287.99 145.085 8
4 2 12 1217.54 127.299 4
2 -12 -4 1326.31 169.433 17
-4 2 -12 1436.15 146.298 2
4 2 -12 1542.38 157.351 2
-4 -12 2 1453.6 168.274 16
-2 -4 12 1602.17 196.226 4
-4 -12 -2 1109.66 189.65 15
-2 -12 -4 777.154 167.75 15
-4 12 2 1187.7 138.383 7
4 -2 12 1234.86 170.695 4
2 -4 12 1398.26 188.424 4
-2 12 4 1267.95 129.208 7
-2 -4 -12 1129.09 129.484 15
-12 -2 -4 1485.66 146.145 15
-2 4 -12 1429.03 154.116 2
2 4 -12 1318.87 153.996 2
-4 -2 -12 1210.87 149.291 15
-12 2 -4 1263.12 128.042 15
-4 2 -12 1213.01 151.693 15
2 -4 -12 1277.55 144.273 14
-2 -4 -12 1244.27 156.711 14
-12 2 -4 979.837 141.018 13
-12 -2 -4 1019.76 145.221 13
-12 4 -2 1117.77 139.239 13
-12 -4 -2 1042.86 144.491 13
-4 2 12 1336.23 150.94 7
-12 4 -2 956.873 116.728 6
-12 4 2 975.269 130.159 13
-12 -4 2 1081.95 139.828 13
-12 2 4 1215.17 146.545 13
-12 -2 4 1366.52 157.04 13
-4 -12 2 1263.88 164.382 3
-4 -12 -2 1412.38 165.449 3
-12 2 4 912.117 106.309 12
-12 -4 2 1021.49 146.634 12
-12 -2 4 1154.42 142.174 12
-2 12 -4 1202.91 147.44 6
-2 -12 4 1406.52 160.524 3
-2 -12 -4 1291.05 150.818 3
-4 12 -2 1314.97 169.526 6
-12 -2 -4 1022.69 133.2 11
4 -12 2 1287.58 111.215 27
4 -12 -2 1297.61 111.276 27
-4 12 2 1286.16 167.457 6
-12 -2 4 1270.56 95.6892 26
-12 2 -4 1443.69 169.236 11
-12 -2 -4 1237.77 93.3231 26
-12 -4 2 1286.65 99.491 26
-12 -4 -2 1288.39 99.7681 26
-2 12 4 1260.71 169.303 6
12 4 2 1381.18 142.211 25
4 12 2 1149.85 127.243 6
12 2 4 1366.46 149.916 25
2 -12 4 1209.75 148.022 3
2 -12 -4 1394.83 156.878 3
-4 2 12 1326.38 162.617 10
-4 -2 12 1386.94 170.814 10
-2 4 12 1297.95 154.48 10
-2 -4 12 1459.93 167.349 10
4 -12 2 1231.48 154.767 3
2 4 12 1219.46 142.665 10
4 -12 -2 1311.23 157.402 3
2 -4 12 1344.88 171.483 10
4 2 12 1284.28 161.242 10
4 -12 2 1224.61 175.437 9
4 -12 -2 1162.32 148.925 9
2 -4 -12 1303.5 142.396 5
4 -2 -12 1515.54 164.883 5
12 -4 2 1333.19 166.556 9
-12 -4 -2 1669.1 161.196 19
-12 -4 2 1842.04 205.663 19
-4 -4 -12 10213.4 349.26 8
-4 -12 4 10998 412.558 19
4 -4 -12 10260 428.486 8
-4 -12 -4 11034 442.354 19
-4 -4 12 10926.8 462.32 4
-4 -12 -4 9841.13 403.851 17
4 4 -12 9854.28 399.413 8
4 -12 -4 10429.3 407.218 17
-4 -12 4 10777.6 461.073 16
-4 -12 -4 7694.03 421.592 15
-12 4 4 9228.07 300.472 7
-4 4 -12 10174.6 371.597 2
4 4 -12 11231.6 410.46 2
-12 -4 -4 10218 371.086 15
-4 12 4 10493.5 357.15 7
-4 -4 -12 10237.3 399.566 15
4 -4 12 9455.73 467.103 4
4 -4 -12 11256.9 366.841 14
-4 -4 -12 10516 424.69 14
-12 4 -4 8004.82 336.115 13
-12 -4 -4 8000.39 340.663 13
-4 4 12 9541.03 386.01 7
-12 4 4 8243.54 328.924 13
-12 -4 4 9243.89 361.606 13
-4 -12 4 10568.6 407.152 3
-4 -12 -4 10783.1 401.774 3
-12 -4 4 8842.32 383.223 12
-4 12 -4 10386.6 376.389 6
4 -12 4 10159.8 274.439 27
4 -12 -4 9625.92 272.715 27
-12 4 -4 10422.1 435.722 11
12 4 4 10160.2 349.552 25
-4 4 12 9545.44 401.088 10
4 -12 4 10288.8 392.79 3
-4 -4 12 10783.5 424.775 10
4 -12 -4 10045.5 392.384 3
12 -4 -4 10013.3 370.091 5
4 4 12 9555.88 380.617 10
4 -4 12 9654.35 446.612 10
4 -12 -4 9192.89 310.56 9
4 -4 -12 10605.8 417.969 5
12 -4 4 10276.5 345.293 9
-12 -6 0 1390.25 181.739 19
0 -6 -12 -2.30201 17.3971 5
0 -6 -12 920.866 147.137 8
-6 -12 0 1117.83 183.951 19
0 -12 -6 950.423 163.582 19
6 0 -12 1312.22 152.512 8
6 -12 0 939.5 120.797 17
0 6 -12 938.869 115.628 8
-6 -12 0 928.99 109.884 16
-6 -12 0 809.717 167.148 15
0 -12 -6 492.249 135.298 15
-6 12 0 905.078 139.281 7
6 0 12 876.671 117.987 4
0 -6 12 1052.15 174.639 4
-12 0 -6 1120.77 145.511 15
-6 0 -12 1139.49 161.448 15
0 -6 -12 895.633 139.112 14
0 6 -12 1019.01 143.598 2
-6 0 12 999.337 113.529 7
-12 6 0 725.461 105.951 13
-12 -6 0 652.085 109.066 13
0 6 12 1071.03 154.904 7
0 -12 6 2.81141 20.4723 4
-12 0 6 1006.59 140.789 13
-12 -6 0 815.771 140.072 12
-12 0 6 811.987 111.159 12
0 -12 6 1162.14 127.151 3
0 -12 -6 952.271 118.865 3
-6 0 12 989.748 124.461 12
-12 0 -6 1095.03 158.075 11
6 -12 0 1008.11 100.511 27
-12 0 -6 1011.68 74.6151 26
12 0 6 1027.47 133.975 25
-12 6 0 5.2869 22.2264 6
0 6 12 1049.01 121.784 10
0 -6 12 1006.38 138.386 10
6 -12 0 1019.51 145.729 3
6 -12 0 905.207 155.657 9
12 -6 0 719.758 159.278 9
-6 0 -12 1148.91 122.552 2
6 0 -12 1249.87 164.614 5
6 0 -12 1080.83 125.163 2
-12 -6 -2 11603.2 375.921 19
-2 -6 -12 8553.11 373.982 8
-2 -12 6 9699.88 306.608 19
-6 -12 2 10112.1 433.545 19
-6 -12 -2 9928.54 427.914 19
-6 -2 12 9750.39 431.475 4
-2 -12 -6 9908.23 396.223 19
6 -2 -12 10235.6 404.145 8
-6 2 -12 10202.9 339.173 2
6 2 -12 10813.8 368.269 2
6 -12 2 9645.04 310.368 19
6 2 -12 9792.46 405.083 8
-2 6 -12 7476.29 264.681 8
-2 -12 -6 9726.8 403.657 17
6 -12 -2 9716.63 344.12 17
-6 -12 2 10167.4 385.961 16
2 6 -12 8141.74 354.699 8
-2 -12 6 10055.7 465.522 16
-2 -6 12 10178.8 462.82 4
-12 6 2 8479.13 328.75 7
-6 -12 -2 7000.58 421.872 15
-2 -12 -6 7189.47 387.697 15
-6 12 2 8989.49 355.538 7
-2 -6 -12 8782.73 327.153 15
6 -2 12 8161.57 388.105 4
-12 -2 -6 9836.18 394.027 15
-2 12 6 9440.78 323.22 7
-6 -2 -12 9294.82 406.34 15
-12 2 -6 9583.43 376.296 15
-6 2 -12 9811.16 426.402 15
-2 6 -12 8617.34 363.813 2
2 6 -12 8899.27 384.923 2
2 -6 -12 9365.35 375.228 14
-2 -6 -12 8897.78 394.556 14
-6 2 12 9686.88 343.924 7
-12 6 -2 6318.76 268.781 13
-12 -6 -2 6624.19 279.384 13
-2 6 12 8949.08 388.035 7
2 -12 6 6115.03 336.096 4
-12 6 2 6587.21 268.37 13
-12 -6 2 7373.62 295.747 13
-12 6 -2 8526.99 294.407 6
-12 2 6 8303.48 348.893 13
-12 -2 6 8566.78 364.405 13
-2 -12 6 9781.16 340.581 3
-2 -12 -6 9933.06 343.303 3
-2 12 -6 9725.67 322.931 6
-12 -2 6 8020.12 338.031 12
-6 12 -2 9268.64 377.091 6
2 -12 6 9965.34 343.163 3
6 -12 2 9064.08 272.71 27
6 -12 -2 8919.32 270.939 27
-12 2 -6 9731.16 416.775 11
2 -12 -6 9643.91 345.417 3
12 -6 -2 8028.06 345.209 5
-6 2 12 9166.37 423.324 10
-6 -2 12 9774.03 425.821 10
-2 6 12 9113.18 345.275 10
-2 -6 12 10251.8 381.77 10
2 6 12 8915.35 320.357 10
2 -6 12 9917.6 408.99 10
12 -2 -6 9020.11 333.939 5
6 2 12 8006.44 385.096 10
6 -12 2 9394.39 387.815 3
6 -12 -2 9526.46 395.578 3
2 -12 6 9821.18 445.343 9
2 -6 -12 8472.54 334.227 5
6 -12 -2 8905.33 368.52 9
-2 12 -6 7472.11 345.386 2
2 12 -6 7309.67 352.141 2
12 -6 2 9230.41 391.258 9
12 -6 -2 7814.1 401.254 9
-12 -6 2 12376.3 470.516 19
1 -1 -13 4669.94 284.242 2
-1 -13 1 5251.47 312.6 19
-1 -1 -13 5445.24 267.842 8
-1 -13 -1 4900.51 308.91 19
1 -13 1 5272.93 291.496 19
1 -1 -13 5152.2 279.215 8
1 -13 -1 4858.33 302.387 19
-1 1 -13 5436.72 259.882 8
1 1 -13 5312.1 276.854 8
-1 1 13 4837.82 304.482 4
-1 -13 -1 4551.03 293.668 17
1 -13 -1 4884.22 293.136 17
1 1 13 4440.44 278.477 4
1 1 -13 4911.02 290.216 2
-1 -1 13 4886.84 322.82 4
1 -1 13 4723.05 310.593 4
-13 1 -1 3773.95 254.62 13
-13 1 1 3735.77 252.692 13
-13 1 1 3387.85 214.546 12
-13 -1 1 3879.99 246.363 12
-1 -13 1 5209.75 317.983 3
-1 13 -1 4881.68 259.184 6
1 13 -1 5140.68 238.041 6
-13 -1 -1 1300.18 110.685 11
-1 13 1 5093.24 272.648 6
-13 -1 1 4891.35 194.979 26
-13 -1 -1 4895.42 193.642 26
1 13 1 5466.98 261.237 6
-13 1 -1 4319.54 234.761 11
-13 1 1 1450.19 120.878 11
1 -13 1 5126.24 317.416 3
-1 1 13 4648.28 303.543 10
1 1 13 4942.22 311.961 10
-1 -13 1 4562.02 268.541 9
1 -13 1 4761.9 286.213 9
1 -13 -1 4517.87 247.292 9
-1 -1 -13 4916.15 222.898 5
1 -1 -13 4988.21 258.104 5
-3 -1 -13 4144.46 257.42 2
3 -1 -13 4581.87 277.697 2
-1 -3 -13 4740.12 272.019 8
-3 -1 -13 5329.09 243.893 8
-1 -13 3 4724.24 267.121 19
-3 -13 1 4600.01 303.609 19
1 -3 -13 4785.28 289.623 8
-1 3 13 4354.26 270.892 4
-3 -13 -1 4476.64 311.942 19
1 -13 3 4940.92 257.712 19
-3 1 13 4469.64 301.427 4
-3 1 -13 4963.31 217.028 8
1 3 13 4176.77 245.971 4
3 -13 1 4806.31 266.791 19
1 -13 -3 4515.58 307.223 19
3 -13 -1 4717.43 292.176 19
-3 -1 13 4425.74 305.01 4
-3 1 -13 4824.92 273.403 2
3 1 -13 4882.28 282.734 2
-1 3 -13 4628.75 234.695 8
1 3 -13 4725.82 260.133 8
3 -13 -1 4347.79 265.654 17
1 -13 -3 4076.06 277.196 17
3 1 13 3979.95 249.193 4
-1 -3 13 4618.85 325.027 4
-3 -13 -1 4177.64 226.645 16
-3 -13 1 4365.02 273.106 16
-3 -13 -1 2721.26 273.308 15
-1 -13 -3 2456.8 268.63 15
3 -1 13 4250.97 285.312 4
1 3 -13 4672.67 284.748 2
-3 13 1 4048.24 197.476 7
1 -3 13 4679.68 323.598 4
-3 -1 -13 4599.58 251.488 15
-3 1 -13 4675.28 255.233 15
-1 3 -13 4943.86 234.878 15
1 -3 -13 4451.74 271.804 14
-13 1 -3 3400.72 247.871 13
-13 3 -1 3279.94 232.607 13
-13 -3 -1 3461.43 239.797 13
-13 3 1 3162.82 228.788 13
-13 -3 1 3514.1 242.815 13
-13 1 3 3641.97 250.263 13
-13 -3 -1 3201.55 245.254 12
-13 1 3 3112.17 197.682 12
-13 -3 1 3693.73 253.864 12
-13 -1 3 3409.35 225.13 12
-3 -13 1 4572.66 303.835 3
-1 13 -3 4217.69 229.586 6
-1 -13 3 4666.12 290.49 3
-1 -13 -3 4584.1 284.712 3
-3 13 -1 4334.3 265.701 6
-3 13 1 4708.58 278.54 6
3 -13 1 4312.3 200.656 27
-13 -1 -3 3568.29 213.796 11
-13 1 -3 4246.98 254.043 11
3 13 1 4550.94 213.662 6
-13 -1 3 4540.76 180.51 26
-13 -1 -3 4544.92 172.252 26
1 -13 3 4648.13 290.575 3
1 -13 -3 4481.16 282.978 3
-13 -3 1 4414 179.435 26
-13 -3 -1 4451.93 178.527 26
-1 13 3 4497.03 269.272 6
-13 3 -1 4240.95 259.719 11
1 13 3 4330.94 253.011 6
13 1 3 4035.35 236.914 25
13 3 1 3742.41 212.198 25
3 -13 1 4328.27 288.129 3
-3 1 13 4608.05 302.064 10
-1 3 13 4469.65 287.723 10
-1 -3 13 4712.96 308.212 10
1 3 13 4403.8 280.895 10
1 -3 13 4586.96 306.983 10
3 1 13 4478.97 306.346 10
3 -1 13 4512.37 314.155 10
1 -13 3 4517.8 301.481 9
3 -13 1 4452.33 283.866 9
3 -13 -1 4098.56 250.811 9
1 -3 -13 4515.63 240.502 5
-13 -3 -1 5077.84 233.08 19
-13 -3 1 4879.82 257.711 19
3 -1 -13 4676.43 275.535 5
13 -3 1 4235.41 275.05 9
loop_
_exptl_crystal_face_index_h
_exptl_crystal_face_index_k
_exptl_crystal_face_index_l
_exptl_crystal_face_perp_dist
2 -1 1 0.1314
0 -1 0 0.1160
-1 -2 2 0.0676
1 0 1 0.1219
1 0 2 0.1147
0 2 1 0.1446
1 2 -1 0.0891
1 2 2 0.1164
0 0 -1 0.1362
2 1 2 0.1044
-2 1 -2 0.0900
-1 -2 -2 0.1498
1 1 -1 0.0643
-1 1 -1 0.0693
1 2 -2 0.0676
0 0 1 0.0947
-2 -1 2 0.0573
1 -2 -1 0.1285
1 -2 0 0.1096
1 -2 1 0.1020
-2 1 -1 0.0731
-1 -2 1 0.0617
1 1 1 0.0946
-2 -1 1 0.0470
-1 2 -2 0.0640
-1 -1 1 0.0403
2 1 -1 0.0576
1 1 2 0.0989
loop_
_geom_angle_atom_site_label_1
_geom_angle_atom_site_label_2
_geom_angle_atom_site_label_3
_geom_angle
_geom_angle_site_symmetry_1
_geom_angle_site_symmetry_3
_geom_angle_publ_flag
F002 Ca01 Ca01 144.7356(3) 49_544 97 ?
F002 Ca01 Ca01 35.2644(3) 57_545 97 ?
F002 Ca01 F002 70.5288(6) 56_554 52_545 ?
F002 Ca01 F002 109.4712(6) 57_545 56_554 ?
Ca01 F002 Ca01 109.4712(6) 59_566 11_566 ?
loop_
_geom_bond_atom_site_label_1
_geom_bond_atom_site_label_2
_geom_bond_distance
_geom_bond_site_symmetry_2
_geom_bond_publ_flag
Ca01 Ca01 3.85440(3) 49_554 ?
Ca01 F002 2.360331(12) 1_555 ?
loop_
_exptl_oxdiff_crystal_face_indexfrac_h
_exptl_oxdiff_crystal_face_indexfrac_k
_exptl_oxdiff_crystal_face_indexfrac_l
_exptl_oxdiff_crystal_face_x
_exptl_oxdiff_crystal_face_y
_exptl_oxdiff_crystal_face_z
1.9980 -0.9956 1.0082 0.2453 0.0521 -0.0151
0.0005 -0.9990 0.0055 0.0382 0.0457 0.0833
-1.0010 -1.9945 2.0089 0.0276 0.2969 0.0768
0.9981 0.0027 1.0013 0.1145 0.0449 -0.0771
0.9969 0.0048 2.0010 0.1364 0.1283 -0.1327
-0.0022 2.0001 0.9889 -0.0546 -0.0080 -0.2224
0.9998 1.9966 -1.0092 -0.0057 -0.2134 -0.1324
0.9960 2.0028 1.9901 0.0599 0.0369 -0.2994
0.0013 -0.0021 -0.9998 -0.0219 -0.0834 0.0557
1.9958 1.0044 1.9971 0.1908 0.0440 -0.2375
-1.9967 0.9935 -2.0080 -0.2672 -0.1355 0.0708
-0.9960 -2.0028 -1.9901 -0.0599 -0.0369 0.2994
1.0002 0.9976 -1.0037 0.0325 -0.1677 -0.0491
-0.9986 0.9963 -1.0067 -0.1527 -0.0906 -0.0063
1.0010 1.9945 -2.0089 -0.0276 -0.2969 -0.0768
-0.0013 0.0021 0.9998 0.0219 0.0834 -0.0557
-2.0009 -0.9962 2.0020 -0.1032 0.2897 0.0148
1.0016 -1.9994 -0.9874 0.1472 -0.0305 0.2010
1.0003 -1.9973 0.0124 0.1691 0.0529 0.1453
0.9990 -1.9953 1.0122 0.1910 0.1363 0.0896
-1.9980 0.9956 -1.0082 -0.2453 -0.0521 0.0151
-0.9998 -1.9966 1.0092 0.0057 0.2134 0.1324
0.9977 1.0017 0.9958 0.0763 -0.0008 -0.1604
-1.9996 -0.9982 1.0022 -0.1251 0.2063 0.0705
-0.9978 1.9932 -2.0119 -0.2128 -0.2198 -0.0340
-1.0002 -0.9976 1.0037 -0.0325 0.1677 0.0491
1.9996 0.9982 -1.0022 0.1251 -0.2063 -0.0705
0.9964 1.0038 1.9956 0.0981 0.0826 -0.2161
